12
Extracted from Q-Chem output
C      -1.651724     -0.320692      0.360741
C      -0.305274      0.135497     -0.055700
C       0.843672     -0.542835     -0.771670
N       2.066242     -0.489380     -0.016894
N       1.592058      0.710717     -0.741895
C       0.442567      1.234203      0.028147
H      -2.262401     -0.576226     -0.508509
H      -1.585296     -1.217116      0.982333
H      -2.170700      0.454592      0.924189
H       0.804647     -1.172551     -1.651962
H       1.845350     -0.379267      0.971694
H       0.402492      2.210307      0.490999
