16
Extracted from Q-Chem output
C      -1.862629      0.032961     -0.564656
C      -1.376728     -0.312152      0.657083
C       0.876499     -0.769521      0.570291
C       1.375666     -0.715889     -0.669440
C       1.632598      0.447260      0.191779
O       0.972892      1.657714     -0.109096
H      -1.943419      1.074857     -0.849677
H      -2.437764     -0.675382     -1.149585
H      -0.609998     -0.123330     -1.629634
H      -1.107010      0.449440      1.374975
H      -1.557031     -1.303480      1.052413
H       0.790680     -1.455218      1.394237
H       1.890814     -1.329064     -1.390489
H       0.205067     -0.278813     -1.652815
H       2.635217      0.619884      0.587851
H       0.866438      2.149068      0.707464
