14
Extracted from Q-Chem output
C      -1.686678      0.667120     -0.434049
C      -0.474917      0.312121      0.419586
C       0.641454      1.329258      0.257648
N       1.729389      0.606822      0.065789
C       1.599589     -0.815009      0.018449
O       2.520128     -1.562760     -0.115725
C       0.122585     -1.076881      0.157036
H      -1.438030      0.626645     -1.497234
H      -2.025948      1.677871     -0.208491
H      -2.507542     -0.029123     -0.253007
H      -0.762665      0.407293      1.473814
H       2.647323      1.014490     -0.048952
H      -0.049674     -1.812738      0.941704
H      -0.232585     -1.513616     -0.779353
