12
Extracted from Q-Chem output
N      -1.951826     -0.096447      0.151944
C      -0.569666      0.029536      0.062680
C       0.062057      1.294482      0.119152
N       1.351391      1.491453      0.094033
C       2.249087      0.446210      0.015528
N       1.622469     -0.762897     -0.034800
C       0.289980     -1.023257     -0.017387
H      -2.465679      0.713164     -0.154255
H      -2.335340     -0.945573     -0.228549
H      -0.569386      2.182764      0.186526
H       2.241488     -1.556126     -0.093114
H      -0.023046     -2.059498     -0.063581
