11
Extracted from Q-Chem output
C      -2.613388      0.398856     -0.208580
C      -1.338891      0.152676     -0.006944
C      -0.114978     -0.078377      0.188264
C       1.162552     -0.379153      0.378304
O       1.605583     -1.106154      1.429547
N       2.196352     -0.042466     -0.452349
H      -2.936370      0.991106     -1.054910
H      -3.367180      0.015080      0.466583
H       0.850435     -1.336830      1.976627
H       3.101873      0.006276     -0.016586
H       2.001330      0.673648     -1.128285
