14
smiles: [H:9][H:13].[O:1]=[c:2]1[c:3]([H:8])[c:4]([H:10])[c:5]([H:11])[c:6]([H:12])[n:7]1[H:14]
O        1.46113700       2.17192600       0.52265800
C        0.83094500       1.13313500       0.45683700
C        1.37781000      -0.20902500       0.42936000
C        0.57712200      -1.29668700       0.35486200
C       -0.84105200      -1.17340500       0.29843000
C       -1.36770100       0.06965200       0.32204800
N       -0.56344600       1.16186300       0.39661700
H        2.45550600      -0.28795400       0.47269500
H        0.21274200       0.51720500      -2.64978600
H        1.02108500      -2.28577000       0.33681300
H       -1.48268100      -2.03962900       0.23867700
H       -2.43144800       0.26478500       0.28329200
H       -0.29839400      -0.00114500      -2.49350100
H       -0.96423100       2.08659300       0.41429700
