19
Extracted from Q-Chem output
C      -2.162472      0.574621      0.082426
C      -1.123269     -0.064426      0.936243
C      -0.363629     -1.483799     -0.786856
O       0.355551     -0.379249     -1.292881
C       1.110745     -0.158536     -0.154935
C       2.434664      0.470307     -0.452944
C       0.222504      0.468729      0.984179
H      -3.067025     -0.034304      0.025795
H      -1.780903      0.734277     -0.935162
H      -2.460904      1.558566      0.459875
H      -1.471735     -0.662818      1.771504
H       0.075142     -2.399590     -1.194459
H      -1.427466     -1.471207     -1.025206
H       0.387732     -1.481785      0.230713
H       3.030867     -0.207186     -1.066048
H       2.976962      0.679989      0.469674
H       2.322138      1.406166     -1.012896
H       0.205680      1.537090      0.733866
H       0.742961      0.342264      1.932974
