7
Extracted from Q-Chem output
O      -2.267228     -0.866217      1.071481
C      -1.704667     -0.101779      0.338764
C      -0.257451     -0.027266      0.225997
C       0.932623      0.058840      0.109037
C       3.401375      0.218238     -0.116057
N       2.235098      0.142523     -0.009298
H      -2.253874      0.604083     -0.307041
