7
Extracted from Q-Chem output
O      -2.122619     -0.672889      1.161832
C      -1.590237     -0.039129      0.293956
C      -0.149229      0.038957      0.135466
C       1.039286      0.138832     -0.039364
C       2.475014      0.354367     -0.381891
N       2.571487     -0.339065      0.587671
H      -2.164279      0.536817     -0.452223
