16
Extracted from Q-Chem output
C       2.374712     -0.013367     -0.050237
C       0.882860      0.145793      0.029369
C      -0.166795     -0.921642      0.096930
C      -1.222868     -0.131018     -0.081124
C      -2.691495     -0.330576     -0.095849
C      -0.504502      1.204694     -0.280973
N       0.342596      1.241617      0.877059
H       2.747458     -0.353309      0.918618
H       2.637863     -0.753126     -0.805729
H       2.868900      0.925437     -0.301240
H      -0.044442     -1.989912      0.217764
H      -3.180005      0.317020      0.637051
H      -2.947699     -1.365446      0.133275
H      -3.105371     -0.078830     -1.074649
H       0.577313      0.686384     -1.059289
H       0.967323      2.043988      0.797242
