12
Extracted from Q-Chem output
C      -1.698486     -0.315613      0.552767
C      -0.331218     -0.271887      1.220403
C       0.797928      0.228955      0.397545
O       0.550850      0.507338     -0.824886
C       2.072092      0.539991     -0.873759
O       2.672326     -0.331402     -1.408833
H      -2.017244      0.679172      0.238801
H      -1.685912     -0.952463     -0.331892
H      -2.444763     -0.706192      1.244984
H      -0.003993     -1.264031      1.556236
H      -0.329594      0.327367      2.137211
H       2.378220      1.558191     -0.645487
