10
Extracted from Q-Chem output
C      -1.402585      0.171198      0.342228
C       0.305064     -0.292294      0.621317
O      -0.014513      0.900399      1.019588
C       1.337182     -0.291912     -0.478670
H      -1.764343      1.169873      0.080957
H      -1.380334     -0.409368     -0.587189
H      -1.950851     -0.311933      1.135861
H       1.266181     -1.183754     -1.101632
H       1.320342      0.620975     -1.084551
H       2.301182     -0.337813      0.038699
