9
Extracted from Q-Chem output
O       2.003179     -0.148634     -0.142322
C       0.671247     -0.188861     -0.084044
N      -0.122017      0.852399      0.227416
N      -1.421046      0.458552      0.191624
C      -1.310211     -0.801042     -0.141892
N      -0.039789     -1.253566     -0.324525
H       2.335204      0.724820      0.074825
H       0.107953      1.801006      0.461095
H      -2.177665     -1.431806     -0.260887
