13
Extracted from Q-Chem output
C      -1.520762     -0.111842      0.219235
N      -1.241255      1.290188      0.054988
C      -0.587455      0.328755     -0.858093
C       0.857847      0.085334     -0.783620
C       1.488608     -0.116181      0.538861
O       1.314163     -1.454403      0.073305
H      -1.097838     -0.653472      1.058066
H      -2.514044     -0.425471     -0.077663
H      -0.578157      1.610815      0.751851
H      -0.987532      0.374893     -1.863447
H       1.426980     -1.150755     -1.014356
H       2.526266      0.186462      0.669824
H       0.900694      0.038963      1.444565
