15
Extracted from Q-Chem output
C       2.059989      0.177297      0.000279
C       0.572240      0.228126      0.099199
O      -0.093488      1.001196     -1.003197
C      -1.322392      0.967273     -0.179992
C      -1.656337     -0.493210      0.008753
C      -0.240350     -1.045954      0.219788
C      -0.131882      1.462934      0.577355
H       2.464579      1.176525     -0.151255
H       2.458972     -0.217636      0.936655
H       2.382788     -0.479152     -0.810046
H      -2.070521      1.672410     -0.527538
H      -2.307483     -0.627258      0.873691
H      -2.154500     -0.919472     -0.863408
H       0.046353     -1.784111     -0.531684
H      -0.094319     -1.490588      1.205721
