10
Extracted from Q-Chem output
N      -1.452260      1.399476     -0.860424
C      -1.014694      0.455062     -0.000513
O      -1.703888     -0.365670      0.543731
C       1.870381     -1.405682      0.677310
C       1.082104     -0.401600      0.434156
N       0.404084      0.585899      0.204028
H      -2.435002      1.456862     -1.051578
H      -0.827970      2.110046     -1.191130
H       2.003485     -1.748310      1.693445
H       2.372339     -1.911801     -0.134576
