10
Extracted from Q-Chem output
N      -0.923987      1.174400      0.105369
C      -0.794060     -0.126564     -0.240234
O      -1.526906     -1.032206     -0.318026
C       1.180310     -0.809472      0.688055
C       1.015101     -0.436000     -0.609570
N       0.648047     -0.052588     -1.676357
H      -1.884580      1.478555      0.112442
H      -0.265140      1.813124     -0.303719
H       1.607489     -0.113135      1.392978
H       1.038137     -1.845339      0.954873
