12
Extracted from Q-Chem output
O       2.163893     -0.709457      0.945546
N       1.548901      0.471509      0.539146
C       0.397104      0.245747      0.092101
C      -0.672528      1.157718     -0.445480
N      -1.601005     -0.000993     -0.414398
C      -0.505005     -0.945689     -0.086082
H       3.009524     -0.407740      1.282858
H      -0.444912      1.542806     -1.444721
H      -0.971800      1.986241      0.198856
H      -2.055789     -0.186963     -1.295939
H      -0.187002     -1.603950     -0.901429
H      -0.681381     -1.549229      0.806415
