17
Extracted from Q-Chem output
O       1.912612     -1.077197      1.049420
C       1.264308     -0.568193     -0.115177
C       0.023944     -1.352964     -0.434913
C      -0.943705     -0.899123      0.589121
C      -1.495020      1.474840     -0.389397
C      -0.160729      1.607372     -0.552925
C       0.849446      0.863086      0.107840
H       1.497518     -0.671764      1.815205
H       2.035634     -0.645929     -0.893037
H       0.222062     -2.432956     -0.385884
H      -0.327850     -1.119335     -1.440621
H      -0.662246     -1.002532      1.629844
H      -2.004262     -1.035642      0.417166
H      -2.201846      1.925149     -1.080877
H      -1.883599      1.075142      0.533189
H       0.171703      2.418964     -1.207997
H       1.719712      1.467880      0.381835
