10
Extracted from Q-Chem output
O       1.335404     -0.408943      1.115355
C       1.349370     -0.442817     -0.202444
C       0.199254      0.319123     -0.705389
C      -1.144914     -0.188262     -0.275721
N      -0.696467      1.112354      0.144763
H       2.065447     -0.946013      1.435907
H       0.293154      0.668651     -1.725354
H      -1.938430     -0.203028     -1.012905
H      -1.160535     -0.998880      0.445303
H      -0.363053      1.072006      1.102238
