10
Extracted from Q-Chem output
O       1.256731     -0.351078      1.359649
C       1.306443     -0.407004      0.055775
C       0.221752      0.260048     -0.672191
C      -1.153363     -0.188486     -0.284109
N      -0.687226      1.124544      0.074744
H       2.129145     -0.929445      0.843216
H       0.417616      0.529560     -1.701234
H      -1.908385     -0.229778     -1.059725
H      -1.225245     -0.947717      0.487597
H      -0.392407      1.131610      1.049277
