10
Extracted from Q-Chem output
N      -0.948955      0.021517     -0.414776
C       0.090187      0.035881      0.416712
O       1.180941     -0.191716     -0.344980
C       2.412772     -0.225711      0.290379
O       2.611440     -0.072599      1.441288
C      -2.247307      0.227554      0.072523
O      -3.205415      0.220831     -0.639453
H      -0.861694     -0.136141     -1.417209
H       3.168527     -0.422109     -0.480336
H      -2.255667      0.389250      1.159238
