17
smiles: [C:1]([O:7]/[C:6](=[C:4](/[C:5]([H:14])([H:15])[H:16])[H:13])[H:17])([H:8])([H:9])[H:10].[C:2](=[O:3])([H:11])[H:12]
C        1.72772600      -0.68952500      -1.55910500
C        0.65170400      -1.53827500       2.22117500
O        0.78548700      -0.72097900       3.08377400
C       -0.87367200       0.97265700       0.20600300
C       -2.18221900       1.64881500      -0.05352100
C       -0.21878100       0.27362100      -0.70816900
O        0.93350400      -0.39011000      -0.43360200
H        2.13669000       0.22055800      -2.01046600
H        2.54774000      -1.31638700      -1.21395900
H        1.15451300      -1.23780700      -2.31527400
H       -0.30566000      -1.66718500       1.68052500
H        1.47801200      -2.20928200       1.91698500
H       -0.44261200       1.04536800       1.19986100
H       -2.97014600       1.25467500       0.59377300
H       -2.11874200       2.72312900       0.13821500
H       -2.50150000       1.51126800      -1.08840400
H       -0.58999700       0.16399400      -1.72758800
