17
Extracted from Q-Chem output
C       1.812646     -1.291107     -0.915255
C       0.870284     -0.723878      1.174602
O       0.206512      0.338045      1.245278
C      -1.299217      0.412135      0.126959
C      -1.921903      1.717558      0.475203
C      -0.595193      0.205478     -1.061771
O      -0.141429     -0.947629     -1.314291
H       2.347494     -0.346746     -0.882207
H       2.208510     -2.055794     -0.254974
H       1.693394     -1.664743     -1.919625
H       0.388046     -1.693748      1.336653
H       1.944199     -0.641276      1.304841
H      -1.742998     -0.475563      0.566244
H      -2.977900      1.712877      0.193602
H      -1.866530      1.883907      1.551367
H      -1.428378      2.545333     -0.034138
H      -0.285489      1.069689     -1.662263
