13
Extracted from Q-Chem output
C      -1.448934     -1.026658      0.368152
O      -0.247433     -1.161843     -0.357912
C       0.857134     -0.554839      0.252902
C       0.945650      0.939567      0.021721
N       0.466250      1.494645     -1.191511
C      -0.309121      1.827557     -0.228460
H      -1.351804     -1.468814      1.367919
H      -2.217316     -1.564697     -0.185223
H       0.863000     -0.743520      1.336512
H       1.743570     -1.039590     -0.167761
H       1.818844      1.412881      0.466340
H       0.565004      1.543001     -2.192986
H      -1.751495      0.021257      0.474342
