13
Extracted from Q-Chem output
C      -1.616537     -0.358407      0.028665
C      -0.300214     -0.527196     -0.718520
C       0.922502     -0.429659      0.166693
C       1.850391      1.704130      0.277840
O       0.988579      0.883991      0.773992
H      -2.464471     -0.436729     -0.652883
H      -1.735188     -1.126126      0.797143
H      -1.669821      0.614092      0.519833
H      -0.207164      0.222102     -1.510169
H       1.846811     -0.567819     -0.395040
H      -0.267559     -1.503973     -1.209944
H       0.874697     -1.132643      1.000632
H       1.690125      2.625358      0.884306
