10
Extracted from Q-Chem output
C       0.008370      0.865944     -0.110704
C       0.832296     -0.428056     -0.065537
O      -0.137085     -1.344430     -0.521070
C      -1.280107     -0.714309     -0.018753
H       0.109441      1.427786     -1.041201
H       0.043071      1.515766      0.758278
H       1.711706     -0.444458     -0.712980
H       1.132488     -0.659138      0.965445
H      -1.192537      0.515156     -0.385186
H      -1.198573     -0.675358      1.088003
