16
Extracted from Q-Chem output
C      -0.705372      1.428570     -0.904814
C      -0.377468      0.198819     -0.062587
C      -1.321853     -0.959164     -0.366137
C       1.073959     -0.185932     -0.286294
C       2.062977     -1.190405      1.659142
O       1.438730     -1.319764      0.541892
H      -0.050932      2.269564     -0.665694
H      -1.734893      1.746218     -0.733638
H      -0.599317      1.211641     -1.971444
H      -0.479394      0.466641      0.996014
H      -2.355883     -0.673770     -0.164825
H      -1.088820     -1.835302      0.239243
H      -1.253823     -1.247950     -1.418900
H       1.244306     -0.504780     -1.317105
H       2.268647     -0.089568      1.794416
H       1.751330      0.636861     -0.039650
