16
Extracted from Q-Chem output
C      -0.659790      1.412171     -0.887515
C      -0.501110      0.189258      0.009057
C      -1.387228     -0.967490     -0.439885
C       0.949419     -0.255473      0.039087
C       2.125980     -0.459449      1.505288
O       1.162022     -1.303308      0.978512
H      -0.042479      2.246589     -0.547239
H      -1.697556      1.748433     -0.896110
H      -0.380218      1.182366     -1.919529
H      -0.761842      0.457151      1.037294
H      -2.438688     -0.676097     -0.409789
H      -1.254859     -1.836422      0.204514
H      -1.152101     -1.261645     -1.466780
H       1.381166     -0.515440     -0.930133
H       3.030638     -0.610613      0.855271
H       1.533610      0.644476      0.456155
