10
Extracted from Q-Chem output
O       2.648833      0.311367      0.406171
C       1.784311     -0.316817     -0.136077
C       0.352616     -0.025509      0.000542
N      -0.665012     -0.667946     -0.553575
C      -1.912774     -0.137345     -0.220165
C      -1.492420      0.885493      0.589842
O      -0.117796      0.949346      0.720952
H       2.001673     -1.180001     -0.794238
H      -0.552027     -1.466459     -1.158502
H      -2.017813      1.645811      1.141830
