10
Extracted from Q-Chem output
O       2.698904      0.411503      0.474222
C       1.895314     -0.305539     -0.049409
C       0.437106     -0.086400      0.015374
N      -0.493403     -0.842265     -0.503129
C      -1.785374     -0.253235     -0.234185
C      -1.445470      0.840872      0.497153
O      -0.091766      0.910520      0.688486
H       2.171925     -1.199578     -0.635444
H      -1.346180     -1.102719     -1.226748
H      -2.011466      1.624778      0.970461
