15
Extracted from Q-Chem output
C      -1.875281     -0.555117     -0.367114
C      -0.885019     -0.655769      0.774159
C       0.994722      1.622630     -0.893289
C       0.926215      0.630250     -0.016710
O      -0.083963      0.520632      0.893222
C       2.038418     -0.356730      0.133786
O       2.929678     -0.503927     -0.657483
H      -2.527019      0.308966     -0.232597
H      -2.493487     -1.454132     -0.403900
H      -1.362687     -0.457501     -1.325636
H      -0.244397     -1.537762      0.651116
H      -1.396802     -0.749162      1.732108
H       1.865600      1.705888     -1.528786
H       0.207074      2.360649     -0.964532
H       1.998523     -0.945786      1.072708
