14
Extracted from Q-Chem output
C      -2.134313      0.719464      0.279213
C      -0.843525     -1.181007     -0.223039
C       0.449699     -0.623384      0.094969
C       1.458506     -0.189661     -0.741794
N       2.494407      0.045457      0.069840
N       2.166064     -0.184688      1.355078
N       0.957976     -0.594777      1.375829
H      -3.223161      0.703152      0.314150
H      -1.702564      1.175067      1.166535
H      -1.779822      1.196402     -0.626965
H      -1.871716     -0.433074      0.380732
H      -1.049834     -1.026398     -1.290550
H       1.501616     -0.058358     -1.810117
H       3.427288      0.345385     -0.153945
