13
Extracted from Q-Chem output
C      -0.832049      1.559900      0.281909
C      -0.326137      0.165179      0.111417
N      -1.185509     -0.739719     -0.123561
O      -0.589379     -1.998596     -0.258340
C       1.158273     -0.109476      0.218009
O       1.705647     -0.641632     -0.965570
H      -1.917362      1.588485      0.206980
H      -0.528680      1.957574      1.253860
H      -0.400496      2.209499     -0.483533
H      -1.336884     -2.575262     -0.424357
H       1.327464     -0.776305      1.073894
H       1.687296      0.823815      0.412514
H       1.237818     -1.463463     -1.141993
