16
Extracted from Q-Chem output
C       1.737019      0.094688     -0.713423
C       1.848583      0.209472      0.792639
C       0.432597      0.665545     -0.304428
C      -0.611728     -0.371017     -0.095664
C      -1.871144     -0.001222      0.638865
C      -1.896064     -0.099779     -0.846681
H       1.743437     -0.932512     -1.075326
H       2.408365      0.734549     -1.277384
H       1.757497     -0.717111      1.347117
H       2.614069      0.892687      1.147445
H       0.891443      0.925593      1.000658
H      -0.322301     -1.422841     -0.048474
H      -2.362430     -0.776776      1.211448
H      -1.905342      0.988068      1.075835
H      -2.389732     -0.947575     -1.302940
H      -1.938694      0.820285     -1.413298
