13
Extracted from Q-Chem output
C      -1.978759      0.728884     -0.718502
C       0.651635     -1.182473      1.030662
C       0.180842     -0.389944     -0.163933
C       1.651590      0.112702     -0.062271
N       1.859686     -0.777937      1.107394
C      -0.908659      0.604878      0.051439
H      -2.131669      0.090820     -1.582699
H      -2.739878      1.471816     -0.514480
H       0.166908     -1.906459      1.684189
H      -0.019552     -0.999485     -1.048359
H       1.768610      1.168269      0.187961
H       2.298654     -0.135032     -0.904902
H      -0.788733      1.261062      0.911255
