11
Extracted from Q-Chem output
N       2.575331     -0.045858      0.053393
C       1.582929     -0.742321      0.042085
C       0.610692     -1.694198      0.034948
N      -0.118405     -0.588664      0.003939
C      -1.305903     -0.085236     -0.028533
C      -1.433428      1.366977     -0.051438
O      -0.502463      2.140543     -0.042154
H       2.506521      0.960547      0.037001
H       0.430230     -2.757850      0.046222
H      -2.184889     -0.725198     -0.037864
H      -2.476237      1.739671     -0.078784
