6
Extracted from Q-Chem output
O      -0.072321      1.725936      0.025007
C      -0.022427      0.534982      0.007806
C      -1.222852     -0.308888     -0.003450
N      -2.162568     -0.965640     -0.013074
C       1.244141     -0.205743     -0.003537
N       2.236028     -0.780647     -0.012752
