6
Extracted from Q-Chem output
O      -0.457193      1.082225      0.074970
C       0.170195      0.030398     -0.412341
C      -1.406083      0.032604     -0.029094
N      -2.438761     -0.457829      0.197904
C       1.523169     -0.196324     -0.011238
N       2.621316     -0.484359      0.180682
