12
Extracted from Q-Chem output
N      -1.983401     -0.106393      0.057629
C      -0.606837      0.240524     -0.017720
C      -0.182367      1.541816     -0.456470
N      -0.055605      1.416956      0.782570
C       2.633665     -0.935353      0.591953
N       1.493162     -0.939659      0.162067
C       0.261831     -0.961386     -0.137122
H      -2.581593      0.706067      0.046052
H      -2.184201     -0.651500      0.886098
H      -0.015960      2.290442     -1.222905
H       3.416154     -0.678534     -0.128749
H      -0.171329     -1.885410     -0.500282
