19
Extracted from Q-Chem output
C       1.921749      1.250005     -1.367182
C       0.965336     -0.862205     -0.040568
O       1.169578      0.846485     -0.232742
C      -0.279393      0.859339     -0.373315
C      -0.478225     -0.462264      0.351661
C      -0.732007     -0.255512      1.845624
C      -1.540721     -1.364361     -0.259815
H       2.969690      1.086084     -1.126513
H       1.643625      0.637486     -2.226815
H       1.740052      2.310347     -1.555210
H       1.570285     -0.988187      0.870917
H      -0.533164      0.799205     -1.433637
H      -0.689151      1.767947      0.072848
H       0.000449      0.431130      2.276220
H      -0.648329     -1.206992      2.376221
H      -1.732960      0.144461      2.039478
H      -1.522281     -2.345143      0.220905
H      -1.350793     -1.515464     -1.322894
H      -2.546392     -0.952824     -0.128970
