19
Extracted from Q-Chem output
C       1.744347      0.630214     -1.536138
C       1.114763     -0.331091      0.153411
O       1.111405      1.265873     -0.035223
C      -0.335178      1.212866     -0.052088
C      -0.404940     -0.254463      0.389729
C      -0.809982     -0.394332      1.854202
C      -1.252413     -1.163655     -0.490039
H       2.768742      0.327013     -1.374937
H       1.214543     -0.087634     -2.148228
H       1.685467      1.636503     -1.974962
H       1.687415     -0.518694      1.068276
H      -0.719613      1.418380     -1.056205
H      -0.735798      1.954769      0.641673
H      -0.210527      0.260624      2.490226
H      -0.660148     -1.422068      2.194692
H      -1.865454     -0.143145      2.003793
H      -1.076291     -2.211314     -0.235409
H      -1.008547     -1.036087     -1.546260
H      -2.320446     -0.964227     -0.360297
