13
Extracted from Q-Chem output
O       1.054354      1.762774      0.047390
C       1.628622      0.735154     -0.188288
C       1.106943     -0.636088      0.146865
C      -0.343554     -0.655448      0.599987
C      -1.978979      0.535330     -0.534593
N      -1.219486     -0.466674     -0.540757
H       2.628412      0.751553     -0.670703
H       1.767605     -1.037958      0.924409
H       1.244328     -1.279643     -0.727564
H      -0.503818      0.101948      1.378478
H      -2.004040      1.264252      0.283516
H      -2.643601      0.702858     -1.380308
H      -0.566351     -1.636659      1.025685
