13
Extracted from Q-Chem output
O       1.013080      1.931218      0.428902
C       1.545634      0.936705      0.020443
C       0.924841     -0.434201      0.040737
C      -0.494915     -0.466981      0.555414
C      -1.534141      0.164145     -0.481117
N      -1.775858     -1.157161     -0.449426
H       2.570649      0.977810     -0.401782
H       1.577351     -1.070972      0.649107
H       0.964641     -0.855531     -0.968941
H      -0.689230      0.089918      1.471378
H      -0.966037      0.612851     -1.310799
H      -2.215205      0.885633     -0.005922
H      -0.798538     -1.507214      0.811650
