12
Extracted from Q-Chem output
O      -0.478651      0.968205     -1.548185
C      -0.222877      1.083873     -0.184944
C      -0.867629      0.130388      0.818040
C      -0.502845     -1.227194      0.201219
O       0.857564     -0.973735     -0.224346
C       0.936034      0.304970      0.353076
H       0.006955      0.206253     -1.881548
H      -0.274689      2.126810      0.113943
H       0.458593      0.184312      1.479174
H      -0.492697     -2.047796      0.918880
H      -1.168209     -1.479026     -0.631013
H       1.933047      0.707307      0.516603
