14
Extracted from Q-Chem output
C       1.765460     -0.103967     -0.504874
C       0.223424      0.286801      1.272352
C      -1.116788      0.691228      0.816952
C      -1.360303      0.071711     -0.562291
O      -0.501555     -1.048640     -0.575787
C       0.602452     -0.739741      0.284788
H       1.951252     -0.727001     -1.379268
H       2.662684     -0.047870      0.108162
H       1.519239      0.903397     -0.847950
H      -1.368927      1.741487      0.959545
H      -1.693570      0.137653      1.585247
H      -1.105000      0.782848     -1.359469
H      -2.382087     -0.272319     -0.724721
H       0.945723     -1.670371      0.742150
