17
smiles: [C:1]([C:2]([C:3](=[O:4])[H:12])([H:11])[H:13])([H:8])([H:9])[H:10].[C:5]([C:6]([H:15])([H:16])[H:17])(=[O:7])[H:14]
C        2.27496600       0.41591600      -0.27966700
C        1.63545300      -0.59129700       0.67373200
C        0.61262300       0.05920800       1.56318300
O       -0.52349500      -0.30537500       1.68812500
C       -1.67640100      -0.57271500      -1.08275500
C       -2.70197100       0.41290300      -0.61024200
O       -0.70936700      -0.29071900      -1.73461100
H        1.53916700       0.81774800      -0.97816900
H        3.06864600      -0.05372300      -0.86071100
H        2.71513300       1.25470400       0.26441500
H        1.15879600      -1.41415100       0.13974400
H        0.98021900       0.94661300       2.12560600
H        2.40503400      -1.01531200       1.32909800
H       -1.86101900      -1.62756300      -0.78712000
H       -2.46237100       1.41601900      -0.95764400
H       -3.68905800       0.11278400      -0.97129300
H       -2.74521100       0.39476400       0.48210300
