17
Extracted from Q-Chem output
C       2.395413      0.337440     -0.434742
C       1.240841     -0.413100      0.116260
C       0.426884      0.054067      1.195204
O      -0.728209     -0.478440      1.380530
C      -1.367466     -0.522132     -0.537466
C      -2.573648      0.349706     -0.353819
O      -0.379740     -0.118939     -1.185450
H       2.147519      0.556554     -1.475558
H       3.316598     -0.244618     -0.425899
H       2.543328      1.284312      0.084410
H       1.135797     -1.464905     -0.120481
H       0.617579      1.095902      1.498965
H       1.391362     -0.539232      1.669944
H      -1.543145     -1.602593     -0.437944
H      -2.266936      1.382195     -0.191511
H      -3.171550      0.305656     -1.269088
H      -3.181294      0.006327      0.481137
