12
Extracted from Q-Chem output
C      -2.624849      0.122030     -0.537938
C      -1.216134     -0.034353     -0.206078
C      -0.056312     -0.161374      0.069668
C       1.330212     -0.315862      0.398944
O       1.642944     -1.596703      0.733744
C       2.198380      0.694607      0.374041
H      -2.952403      1.145748     -0.351216
H      -2.802138     -0.106690     -1.590029
H      -3.238227     -0.548487      0.065482
H       3.241971      0.549569      0.627589
H       1.870869      1.684253      0.096008
H       2.579626     -1.641678      0.942716
