19
Extracted from Q-Chem output
C       0.966297      0.563884      1.577696
C       0.710619     -0.910120     -1.523648
C       0.328927      0.353782     -0.814055
C      -0.481848     -0.120218     -1.977703
C      -0.204066      0.391743      0.610272
C      -1.028489     -0.825653      0.997578
O      -1.101896      1.496211      0.744931
H       1.656380     -0.279510      1.508145
H       0.601030      0.638153      2.603031
H       1.526338      1.474365      1.347386
H       0.524889     -1.852983     -1.026183
H       1.602595     -0.900957     -2.136072
H       0.977892      1.201125     -1.024441
H      -1.463392     -0.530755     -1.782254
H      -0.411227      0.432653     -2.904971
H      -1.865846     -0.969729      0.314661
H      -1.438681     -0.670263      1.995815
H      -0.422026     -1.731433      1.014799
H      -0.666578      2.283991      0.411651
