14
Extracted from Q-Chem output
C       1.236726     -1.003251     -0.031863
C       1.061594      0.272917      0.447450
O       1.719757      1.304642     -0.160427
C      -0.994343      1.013987      0.053260
O      -0.770561      2.170426      0.009180
C      -1.805803     -0.062180     -0.049955
H       1.105702     -1.839304      0.643154
H       1.904412     -1.159399     -0.871308
H      -0.033753     -1.418838     -0.833066
H       0.823016      0.413623      1.503438
H       1.132783      2.075722     -0.154895
H      -0.846677     -1.116329     -0.800671
H      -2.631604     -0.005406     -0.746693
H      -1.901137     -0.716123      0.806086
