17
Extracted from Q-Chem output
C       2.279309     -0.127700      0.110575
C       0.898311      0.475440     -0.017503
C      -0.214708     -0.391522      1.111480
O      -1.181786      0.293151      1.657526
C      -2.319111      0.163888      0.746853
C      -1.739969      0.078505     -0.630346
C      -0.569964     -0.777184     -0.206024
H       2.323028     -1.131021     -0.317021
H       2.604437     -0.188157      1.149485
H       3.000437      0.487340     -0.430839
H       0.645003      0.698111     -1.060455
H       0.781016      1.422832      0.504872
H       0.470934     -0.903971      1.773722
H      -3.052556      0.927395      0.987919
H      -2.404508     -0.443411     -1.320053
H      -1.390801      1.004896     -1.168596
H      -0.102789     -1.579934     -0.759100
