10
Extracted from Q-Chem output
N       1.560860      0.000719     -0.611751
C       0.367646      0.143391     -0.070566
C      -0.388555     -1.025861     -0.336928
O      -1.731792     -0.606556     -0.349492
N      -1.779416      0.676489      0.078376
C      -0.589483      1.133827      0.328840
H       2.361432      0.495621     -0.230543
H       0.865248     -1.107029     -1.075701
H      -0.243736     -1.881079      0.321448
H      -0.471970      2.154049      0.658346
