13
Extracted from Q-Chem output
C      -2.537780     -0.185941      0.600712
C      -1.138285     -0.112165      0.088025
C       2.385576     -0.202901     -1.045637
C       1.524273      0.467349     -0.332340
O       3.286077     -1.065302     -0.480260
N       0.838697      1.246584      0.327296
N      -0.495979      0.882594      0.608265
H      -2.829821      0.593319      1.322575
H      -2.681281     -1.166639      1.060530
H      -3.221300     -0.157894     -0.250767
H       2.408130     -0.056177     -2.120421
H       3.378772     -1.831609     -1.049335
H      -0.886269      1.554898      1.265568
