13
Extracted from Q-Chem output
C      -2.551443      0.044575      0.415640
C      -1.147515     -0.028316     -0.087198
C       2.037976     -0.777468     -1.381518
C       1.530662     -0.025752     -0.400656
O       3.200072     -0.037586     -0.644815
N       1.059270      0.556238      0.583329
N      -0.314210      0.481002      0.764422
H      -2.680045      0.508230      1.406941
H      -2.964750     -0.966234      0.443486
H      -3.155789      0.592457     -0.310769
H       2.001362     -0.564268     -2.438513
H       3.586854     -0.705345     -0.067015
H      -0.570034      0.900976      1.656328
