15
Extracted from Q-Chem output
C      -2.518564     -0.308945      0.301148
N      -1.331853      0.307250     -0.545455
C      -0.174823     -0.539029     -0.578110
C       0.855583      0.098860     -0.016171
C       2.219363     -0.401677      0.310768
C       0.321194      1.422540      0.275478
N      -0.910867      1.574328     -0.037893
H      -1.748429      0.471809     -1.457714
H      -2.036835     -0.470703      1.277318
H      -2.608561     -1.304566     -0.164480
H      -0.281029     -1.542400     -0.957391
H       2.987105      0.248977     -0.111569
H       2.370361     -1.406348     -0.082207
H       2.372825     -0.435599      1.391615
H       0.859775      2.251479      0.717825
