15
Extracted from Q-Chem output
C      -2.868781     -0.527382     -0.005462
N      -1.166689      0.309282     -0.554764
C      -0.079317     -0.522412     -0.628111
C       0.958098      0.112078     -0.025388
C       2.354706     -0.373256      0.176604
C       0.396219      1.361806      0.384652
N      -0.864640      1.475237      0.063905
H      -2.050388      0.210825     -1.128988
H      -3.041247      0.208858      0.788843
H      -2.394848     -1.394888      0.472031
H      -0.154052     -1.492200     -1.094768
H       3.075863      0.282545     -0.314389
H       2.481188     -1.375715     -0.232152
H       2.609443     -0.409781      1.237464
H       0.891036      2.169563      0.905514
