14
Extracted from Q-Chem output
C       1.344983      1.190807      0.451960
C       0.858450     -1.229606     -0.362310
O       0.785111     -0.062194      0.843979
C      -0.385508     -0.603166      0.125184
C      -1.175045      0.313044     -0.766033
O      -2.136340      1.092642     -0.084538
H       0.700054      2.002083      0.798191
H       1.491762      1.226899     -0.625130
H       2.308597      1.251959      0.953071
H       1.048281     -2.110818      0.264686
H      -1.022683     -1.064459      0.882393
H      -1.733397     -0.339059     -1.441669
H      -0.514868      0.919295     -1.392632
H      -1.689998      1.750219      0.450794
