13
Extracted from Q-Chem output
C       1.770348      0.024975      0.373426
C       0.314429      0.196388      0.108387
C      -0.590775     -0.952676     -0.195259
N      -1.860311     -0.267209     -0.372148
C      -1.846633      1.044596     -0.227398
C      -0.423520      1.315177      0.083822
H       2.243196      0.983292      0.584515
H       1.940808     -0.637785      1.225712
H       2.274265     -0.423626     -0.486685
H      -0.293876     -1.489472     -1.102079
H      -2.701589     -0.772684     -0.592269
H      -0.637120     -1.675626      0.625581
H      -0.045247      2.312350      0.267154
