13
Extracted from Q-Chem output
O       1.696829      1.340725     -0.780074
C       1.828730      0.648847      0.338106
C       1.051289     -0.453381      0.643765
C       0.092847     -1.293958      0.428924
C      -1.336986     -0.906424      0.586404
C      -1.773703      0.216178     -0.318211
O      -1.058305      0.923879     -0.984039
H       0.794241      1.161448     -1.119088
H       2.646335      0.975224      0.970459
H       2.226111     -0.789876      0.444516
H      -1.572658     -0.569343      1.606102
H      -2.035179     -1.730082      0.393720
H      -2.869448      0.367193     -0.364218
