16
Extracted from Q-Chem output
C      -1.304188     -0.134256      1.382993
C      -1.263488     -0.163559     -0.012263
N      -0.612033      1.653088     -1.133738
C      -0.088928      0.392032     -0.935855
C       1.256537      0.398665     -0.220723
C       1.780426     -0.921688      0.253017
O       1.117755     -1.918982      0.407378
H      -0.393238     -0.221357      1.961465
H      -2.235208     -0.045802      1.930734
H      -0.950384     -1.239387      0.362280
H      -2.210541     -0.194221     -0.535875
H      -1.147597      1.661797     -1.997831
H      -0.024168     -0.286545     -1.798592
H       1.218738      1.083787      0.635130
H       1.996889      0.841678     -0.893308
H       2.864824     -0.950847      0.482856
