12
Extracted from Q-Chem output
N      -1.026374     -1.221611     -0.378144
C       0.103471     -0.687214     -1.091511
C      -0.889141      0.202873     -0.501207
C      -0.130961      0.712465      1.537059
N       1.085104      0.112640      1.152006
C       0.681460      0.345724     -0.200291
H      -0.806770     -1.523813      0.569257
H       0.323137     -0.868465     -2.129971
H      -1.578906      0.873653     -0.984596
H      -0.008505      1.786107      1.305716
H       1.104191     -0.875981      1.375264
H       1.155624      1.195099     -0.681540
