8
smiles: [C:4](=[O:5])([H:6])[H:8].[O:1]=[C:2]=[N:3][H:7]
O       -2.60947200       1.54217600       1.97779300
C       -1.72068000       1.01884000       1.44730600
N       -0.74120900       0.45486300       1.02205100
C        1.44585400      -0.89604000      -1.02729500
O        0.45277000      -0.38424700      -1.45361100
H        2.20320000      -1.35063900      -1.69459100
H       -0.54660500       0.27251200       0.05500300
H        1.66068200      -0.94318800       0.05762900
