12
smiles: [C:3](=[C:4]1[C:5]([H:10])([H:11])[N:6]1[H:12])([H:7])[H:8].[N:1]#[C:2][H:9]
N       -2.96091400      -0.71806000      -2.78442400
C       -2.02173900      -0.39751400      -2.21604900
C        0.02559900       1.01215500       1.81582500
C        0.43078000       0.27868000       0.80305900
C        1.04540000      -0.90133000       0.23492100
N        0.58012500       0.25422800      -0.57922300
H       -0.35362700       2.01444600       1.66325200
H        0.05671400       0.61772900       2.82203500
H       -1.14465600      -0.09759300      -1.68504500
H        0.47779900      -1.81183200       0.08291600
H        2.11223700      -1.03723900       0.38335800
H        1.32561800       0.84295800      -0.92990400
