12
Extracted from Q-Chem output
N      -2.601978     -0.317582     -1.233752
C      -1.763462     -0.208383     -0.398851
C      -0.868724      0.927100      0.125984
C       0.343609      0.119974      0.322536
C       1.263288     -0.777701     -0.372399
N       1.655479      0.412702      0.400904
H      -0.698234      1.854501     -0.441579
H      -1.369133      1.175274      1.062727
H      -1.263240     -1.043947      0.326969
H       1.440628     -0.687472     -1.438804
H       1.417345     -1.764218      0.050566
H       2.192727      0.402540      1.256386
