12
Extracted from Q-Chem output
C      -1.953125     -0.276161      0.058174
C      -0.482329     -0.043656     -0.036116
C       0.120836      1.194466     -0.057750
N       1.576836      0.700277     -0.058730
C       1.570250     -0.684202     -0.180514
N       0.367847     -1.135190     -0.159720
H      -2.477287      0.673831      0.147249
H      -2.194105     -0.897241      0.922998
H      -2.318897     -0.795841     -0.829812
H       1.156339      1.142041      0.907597
H       2.316283      1.299631     -0.395060
H       2.477104     -1.268203     -0.238005
