10
Extracted from Q-Chem output
N       1.742031     -0.544485     -0.080151
C       0.464445     -0.153926      0.204943
C      -0.774618     -0.643950      0.351353
C      -1.172294      0.754243      0.739564
O       0.228796      1.152950      0.530912
H       2.322379      0.188451     -0.454879
H      -1.264592     -1.595510      0.264112
H       1.820825     -1.415167     -0.576677
H      -1.449427      0.935610      1.779508
H      -1.820540      1.311631      0.061300
