11
Extracted from Q-Chem output
O       1.990632      0.391206     -0.243874
C       0.694934      0.169055     -0.084747
C      -0.060651     -1.118289      0.000932
C      -1.524763     -0.748464      0.182811
C      -1.504806      0.590175      0.188611
N      -0.142681      1.139228      0.024915
H       2.457568     -0.446677     -0.306019
H       0.318428     -1.718141      0.836025
H       0.105532     -1.710111     -0.906179
H      -2.281443      1.334947      0.292289
H       0.130314      2.111382     -0.003884
