11
Extracted from Q-Chem output
O       2.056405      0.452834     -0.110269
C       0.756747      0.133780      0.002953
C       0.077216     -1.084592      0.176781
C      -1.407654     -0.803703      0.330138
C      -1.428600      0.559083      0.114540
N      -0.156083      1.095468     -0.031467
H       2.584493     -0.346543     -0.062483
H       0.549271     -2.028720      0.411189
H      -0.708680     -1.291877     -0.737076
H      -2.272332      1.232541      0.090334
H       0.071316      2.065203     -0.189732
