15
Extracted from Q-Chem output
O       2.312992     -0.423376     -0.944971
C       1.152082     -0.152220     -0.724406
N       0.034306     -0.910049     -1.222114
C       0.320876     -2.078461     -1.602555
C      -1.079341      0.598449      1.630638
C      -0.591523      1.287341      0.364657
N       0.764844      0.921428     -0.003439
H      -1.105236     -0.483130      1.487708
H       1.336883     -2.477135     -1.546581
H      -0.471023     -2.705387     -2.006613
H      -0.423854      0.816755      2.476179
H      -2.087075      0.932847      1.884848
H      -0.608316      2.372003      0.491128
H      -1.246450      1.045595     -0.470298
H       1.529420      1.443753      0.389452
