15
Extracted from Q-Chem output
C       0.443830      1.467397      0.022584
C       1.342843      0.308973     -0.481444
C       0.174738     -1.990542     -0.051728
O      -0.636761     -2.522609      0.652401
C      -1.811585      0.460606      0.878838
C      -0.680651      0.467978      0.200728
C       0.077593     -0.587332     -0.578034
H       0.776714      1.994776      0.916546
H       0.231150      2.200544     -0.758220
H       2.032644     -0.041400      0.287845
H       1.086106     -2.539478     -0.376641
H      -2.133803      1.334935      1.433129
H      -2.436146     -0.422402      0.914155
H       1.897295      0.477263     -1.402910
H      -0.272498     -0.664191     -1.614837
