11
Extracted from Q-Chem output
C      -1.374722     -0.577283      0.030966
C      -0.119550     -0.118154      0.665642
C       1.188514      0.085531     -0.075629
O       1.000110      0.549833     -1.395099
C      -1.225508      0.846960      0.420864
H      -2.072100     -1.196624      0.583911
H      -1.428980     -0.704134     -1.048442
H       0.002061     -0.362103      1.719503
H       1.715742     -0.866417     -0.160682
H       1.819999      0.772095      0.500083
H       0.716513      1.466655     -1.359366
