13
Extracted from Q-Chem output
C       1.906029     -0.122672     -0.182552
C       0.434594     -0.048396      0.079776
C      -0.409730      1.070258      0.105797
C      -1.708978      0.606069     -0.036133
C      -1.646155     -0.780771     -0.124504
N      -0.378442     -1.231410     -0.099863
H       2.308138     -1.084611      0.135061
H       2.105253     -0.013273     -1.250442
H       2.434275      0.670119      0.347450
H      -0.089103      2.096283      0.209149
H      -2.610441      1.201663     -0.034475
H      -2.465699     -1.484329     -0.156186
H       0.132307     -0.871977      1.008006
