13
Extracted from Q-Chem output
C      -1.871387     -0.277922     -0.020999
C      -0.680098     -0.746734     -0.366240
C       0.381474      0.048662     -1.076917
N       1.698180     -0.031366     -0.458860
C       1.850971      0.375406      0.722893
O       0.939754      0.879706      1.577431
H       0.047001      0.735908      1.236195
H      -2.602709     -0.900361      0.479687
H      -2.165127      0.743942     -0.243764
H      -0.416871     -1.775621     -0.133045
H       0.481857     -0.335720     -2.094570
H       0.059340      1.094259     -1.167151
H       2.836387      0.357714      1.181761
