15
Extracted from Q-Chem output
C      -1.760355     -0.834411      0.685533
C      -0.364016     -0.492212      0.180937
C      -0.435486      0.684085     -0.778795
N       0.426432      0.246777      1.091100
C       1.692047      0.233352      0.522136
C       1.624169      0.558649     -1.057898
N       2.180462      0.751136     -2.055899
H      -2.236241      0.039374      1.132168
H      -1.685572     -1.612743      1.444275
H      -2.383110     -1.205431     -0.129697
H       0.112862     -1.385387     -0.252310
H      -0.014064      1.634230     -0.485330
H      -1.370614      0.807354     -1.339241
H       2.400344      0.925924      0.973056
H       2.112857     -0.781211      0.458914
