15
smiles: [C-:1]([N+:2]1=[C:6]([H:15])[C@:4]([O:5][H:13])([H:12])[C:3]1([H:10])[H:11])([H:7])[H:9].[H:8][H:14]
C       -1.92606700      -0.36966800      -0.27628900
N       -0.62823700      -0.23248400      -0.31897400
C        0.39590500      -1.16375800       0.20018600
C        1.46427500      -0.25105100      -0.46326600
O        2.46345700       0.28375300       0.37335700
C        0.29708300       0.60248300      -0.82430600
H       -2.33325300      -1.20626000       0.26726300
H       -1.36118300       1.92766500       1.49486400
H       -2.55173700       0.35310200      -0.77568800
H        0.26998300      -2.16848200      -0.20342900
H        0.42368400      -1.17835700       1.28903900
H        2.00308800      -0.74531200      -1.27641300
H        2.05321400       0.97883400       0.89502000
H       -0.71190400       1.99613800       1.13691300
H        0.11046300       1.43899800      -1.48014000
