15
Extracted from Q-Chem output
C      -1.893528     -0.100904      0.087797
N      -0.664091     -0.260204     -0.423420
C       0.389449     -1.168405      0.044456
C       1.422357     -0.124364     -0.475036
O       2.407088      0.315758      0.414283
C       0.207167      0.757735     -0.663259
H      -2.355856     -0.978752      0.524922
H      -1.224402      1.100073      1.062133
H      -2.552020      0.584729     -0.432076
H       0.368177     -2.149352     -0.430150
H       0.393031     -1.264344      1.133790
H       1.946108     -0.443417     -1.377750
H       1.969380      0.832883      1.096808
H      -0.430381      1.450874      0.773517
H       0.021590      1.580117     -1.343680
