13
Extracted from Q-Chem output
C      -2.019324      1.010888     -0.074497
N      -0.376605     -0.460016      0.099761
C       0.757990     -1.436293      0.144929
C       1.712424     -0.235642     -0.004205
C       0.409840      0.557412     -0.035103
O      -0.001987      1.723541     -0.152996
H      -2.522763      0.145439      0.318890
H      -2.064500      1.903817      0.527855
H      -2.071728      1.150899     -1.142984
H       0.756620     -2.139745     -0.688675
H       0.823771     -1.979667      1.088196
H       2.351977     -0.019778      0.849831
H       2.287508     -0.190940     -0.927494
