16
Extracted from Q-Chem output
C       2.164729     -0.069575      0.562948
C       1.081262     -0.497892     -1.126184
C      -0.129986     -1.055904     -0.738785
C      -0.975083     -0.112709     -0.101618
C      -2.380092     -0.345879      0.351072
C      -0.275441      1.061185      0.015441
N       0.979563      0.817446     -0.505687
H       1.485099     -0.400059      1.339748
H       2.840549     -0.841687      0.224221
H       2.711812      0.827768      0.842949
H      -0.411959     -2.077072     -0.957020
H      -2.817800      0.549611      0.792609
H      -2.421137     -1.147160      1.091786
H      -3.006240     -0.651567     -0.489360
H      -0.542458      2.003336      0.467392
H       1.549112      1.563498     -0.870108
