12
Extracted from Q-Chem output
O      -2.063044      0.173456      1.089384
C      -1.535701     -0.364869      0.155828
C      -0.291509      0.160879     -0.563107
C       0.607574      0.958919      0.421186
N       1.567293     -0.035368      0.925524
C       1.726454     -1.052282      0.351534
O       0.382573     -0.839655     -1.202126
H      -1.922572     -1.312093     -0.271860
H      -0.647439      0.902298     -1.298064
H       1.188142      1.738090     -0.071485
H       0.038233      1.385839      1.245187
H       1.352140     -1.756647     -0.440849
