15
Extracted from Q-Chem output
C       0.752755      1.081804      0.072824
C       1.394641     -0.275076     -0.061546
C       0.449243     -1.367205      0.256756
O      -0.694316     -1.132695      1.028476
C      -1.463246     -0.073176      0.496002
C      -0.628273      0.720809     -0.469243
C       0.559087     -0.952387     -1.187869
H       0.721883      1.488839      1.089177
H       1.242621      1.810210     -0.574936
H       2.467371     -0.414767     -0.005636
H       0.855071     -2.354178      0.448004
H      -1.776832      0.561962      1.330781
H      -2.360109     -0.468851      0.006111
H      -1.184294      1.505140     -0.984582
H      -0.390524     -0.015995     -1.420995
