10
Extracted from Q-Chem output
N       2.192511      0.244859     -0.264676
C       1.016830     -0.416177     -0.212869
N       0.082166      0.299828      0.617071
C      -1.116742      0.190331      0.418725
C      -2.405877      0.126549      0.269469
O       0.780536     -1.462647     -0.755008
H       2.335334      1.065555      0.292173
H       2.954713     -0.167202     -0.769255
H      -2.920017      0.845646     -0.351547
H      -2.960441     -0.665839      0.751481
