19
Extracted from Q-Chem output
C      -2.034145      0.182533      0.888638
C      -0.681828      0.768714      0.499492
C       0.045786     -0.023835     -0.587792
C       1.154389      0.809337     -1.245944
C       0.594649     -1.355550     -0.149344
C       0.737715     -1.800096      1.088735
O       2.193100      1.179577     -0.366118
H      -2.707149      0.162785      0.028151
H      -2.511902      0.775887      1.670081
H      -1.937740     -0.840385      1.254656
H      -0.047690      0.851420      1.388332
H      -0.832611      1.791512      0.136217
H      -0.677343     -0.221875     -1.391293
H       1.631805      0.232055     -2.040442
H       0.702648      1.696927     -1.709469
H       0.931791     -1.992636     -0.964612
H       0.432848     -1.223797      1.954746
H       1.176822     -2.770567      1.284022
H       1.832561      1.746155      0.318060
