14
Extracted from Q-Chem output
O       1.521264      0.133703      0.518532
C       0.843544      1.332808      0.191195
C       0.216686      0.806384     -1.023584
C       0.782829     -0.540950     -0.545217
C      -0.382749     -1.246903      0.108726
C      -1.095733     -0.056764      0.787992
N      -0.593894      1.166583      0.135669
H       1.285103      2.271261      0.497505
H       0.021097      1.181394     -2.017503
H       1.441454     -1.118583     -1.189990
H      -0.048513     -1.999209      0.823805
H      -1.012867     -1.731843     -0.641289
H      -0.878774     -0.009887      1.855126
H      -2.177411     -0.093106      0.662108
