14
Extracted from Q-Chem output
O       1.790255      0.294403      0.644764
C       1.258626      1.305857      0.185567
C       0.199223      0.890150     -0.817023
C       0.566361     -0.594459     -0.692453
C      -0.420866     -1.264838      0.149139
C      -1.236235     -0.063792      0.690396
N      -1.120777      0.937023     -0.328377
H       1.474694      2.298093      0.598461
H       0.310349      1.361313     -1.799261
H       1.237979     -1.136663     -1.353573
H       0.051157     -1.961282      0.850986
H      -1.078957     -1.856194     -0.497035
H      -0.824045      0.203999      1.681307
H      -2.285729     -0.318723      0.850177
