18
Extracted from Q-Chem output
C      -2.364546      0.472952     -0.352300
C      -1.260124      0.933039      0.588825
C      -0.400051     -0.213588      1.115300
N       0.293822     -0.930560      0.073594
C       1.514814     -0.787509     -0.351435
O       1.692017     -1.631797     -1.306115
C       2.581497      0.140973      0.101507
H      -2.962293      1.316982     -0.700112
H      -1.949921     -0.028730     -1.227920
H      -3.037013     -0.228917      0.147273
H      -0.612599      1.653290      0.078553
H      -1.694647      1.454717      1.447137
H       0.321844      0.171285      1.844212
H      -1.032346     -0.927412      1.650952
H       0.466423     -1.804770     -0.912485
H       3.486233     -0.429206      0.308787
H       2.287520      0.703259      0.986129
H       2.806128      0.837356     -0.706999
