12
smiles: [C:1](=[O:2])([H:7])[H:8].[C:3](\[C:4]([H:9])([H:10])[H:11])(=[N:5]\[H:12])[H:6]
C        2.33900200      -0.66552700       0.70440700
O        1.76699300      -1.10127500      -0.25100000
C       -0.61414700       0.82947000       0.10058500
C       -1.63319800      -0.10388000      -0.47845500
N       -0.44411100       1.12988100       1.31501200
H        0.05885200       1.30213900      -0.62088500
H        1.89719100       0.12453600       1.34164900
H        3.34120000      -1.02857700       1.00343300
H       -1.13773200      -0.91978400      -1.01050800
H       -2.25421700       0.42223000      -1.20761600
H       -2.27649200      -0.52564000       0.29518100
H       -1.11745400       0.63973300       1.90566600
