12
Extracted from Q-Chem output
C       1.803739     -0.296958      0.494412
O       0.716689     -0.962149      0.693583
C      -0.229764      0.191836      0.509391
C      -1.265348     -0.326242     -0.479219
N      -0.479199      0.744253      1.667157
H       0.560898      0.796811     -0.239913
H       1.944064      0.657814      0.998954
H       2.667937     -0.859783      0.140805
H      -0.796430     -0.711285     -1.384203
H      -1.927190      0.497890     -0.744236
H      -1.846725     -1.114510     -0.000489
H      -1.222154      1.430750      1.585164
