13
Extracted from Q-Chem output
C       2.319306      0.230750      0.117698
O       1.077285     -0.355764      0.503103
C      -0.011129      0.132737     -0.102440
O       0.017289      1.010046     -0.922365
C      -1.268039     -0.567186      0.385145
N      -2.499473     -0.114431     -0.211276
H       3.081623     -0.275716      0.703871
H       2.321189      1.299557      0.331795
H       2.497823      0.082630     -0.947441
H      -1.311105     -0.448852      1.470957
H      -1.137546     -1.638308      0.211050
H      -2.621984      0.876762     -0.050610
H      -2.465240     -0.232227     -1.215388
