12
Extracted from Q-Chem output
C      -1.918828     -0.143938      0.029164
C      -0.261464      0.028754     -0.023140
C      -0.641954      1.273592     -0.140988
N       2.320641      0.437798      0.015647
C       1.834411     -0.719178     -0.160710
N       0.469279     -1.004585     -0.091583
H      -2.595296      0.705408      0.121376
H      -2.007333     -0.770328      0.914947
H      -2.146247     -0.667443     -0.893007
H      -0.814271      1.955542      0.681093
H       3.329995      0.425062     -0.087603
H       2.431522     -1.608029     -0.374738
