11
Extracted from Q-Chem output
C      -1.346660      0.400895     -0.633495
C      -0.211853     -0.567548     -0.533434
O      -0.151263     -1.684350     -0.909590
C       0.404688     -0.483030      1.531615
O       0.540316     -0.819987      2.614700
C       1.872204      0.304428      0.339980
O       1.153765      0.265146     -0.675459
H      -2.234103     -0.081879     -0.228440
H      -1.520525      0.624817     -1.687807
H      -1.142336      1.321226     -0.092507
H       2.790200      0.886333      0.126984
