9
Extracted from Q-Chem output
O       2.166989     -0.383365     -0.279023
C       0.857151     -0.190745     -0.121214
N       0.338812      0.963652      0.234477
N      -0.981605      0.668686      0.261206
C      -1.172131     -0.609667     -0.071503
N      -0.022751     -1.194298     -0.322573
H       2.612365      0.447453     -0.088824
H      -1.653412      1.372619      0.506023
H      -2.145418     -1.074334     -0.118568
