12
smiles: [H:7][H:10].[O:1]=[C:2]([C:3]([O:4][C:5](=[O:6])[H:12])([H:8])[H:11])[H:9]
O       -1.84792200      -0.60001200       0.83087500
C       -1.09913500      -0.59009500      -0.10108400
C        0.39675000      -0.41858500       0.07112900
O        1.09167300      -0.43322400      -1.17310000
C        0.93724200       0.65732600      -1.93076000
O        0.26002600       1.60080200      -1.64991400
H       -0.87504300       0.36166500       3.10908400
H        0.58579800       0.50691000       0.61750200
H       -1.45150000      -0.72658300      -1.14369600
H       -0.52261200       0.66181500       3.69223100
H        0.78688300      -1.26096500       0.64137600
H        1.52802000       0.55291300      -2.84948500
