11
smiles: [H:10][H:11].[O:1]=[C:2]1[N:3]([H:7])[C:4]([H:8])([H:9])[C-:5]=[O+:6]1
O        2.92458900      -0.95691700      -0.51076400
C        1.81731100      -0.58465600      -0.31893400
N        0.78798900      -1.07475600       0.38951600
C       -0.36875100      -0.22881800       0.29836100
C        0.07194300       0.91001200      -0.59179700
O        1.30744600       0.64463700      -0.89961000
H        0.87340000      -1.93224600       0.90097000
H       -1.23456200      -0.71323700      -0.16372000
H       -0.68944600       0.18675100       1.25866300
H       -3.17201700       2.02808400       0.08443600
H       -2.50659200       2.03568700      -0.24958500
