11
Extracted from Q-Chem output
O       2.599041      0.169956     -0.119769
C       1.413909      0.082722     -0.138031
N       0.565878     -0.662830      0.619276
C      -0.766829     -0.634851      0.058711
C      -0.699138      0.572087     -0.854756
O       0.615267      0.809965     -1.034370
H       0.945620     -1.432606      1.139831
H      -0.960331     -1.508111     -0.575438
H      -1.552258     -0.561546      0.807248
H      -0.992518      1.673206      0.454476
H      -1.303095      1.631844     -0.358070
