11
Extracted from Q-Chem output
C      -1.518421      0.535019      0.019546
C      -0.314699     -0.363581     -0.114978
O       0.855801      0.472659     -0.129544
C       2.020727     -0.154138     -0.262954
O       2.173141     -1.336143     -0.369214
H      -1.580052      1.231246     -0.817513
H      -2.427975     -0.067363      0.032351
H      -1.474693      1.109799      0.945277
H      -0.338446     -0.945386     -1.038358
H      -0.230788     -1.065359      0.717097
H       2.835407      0.583248     -0.261848
