11
Extracted from Q-Chem output
C      -1.474751      0.449227      0.529384
C      -0.290333     -0.299145     -0.027299
O       0.723128      0.692134     -0.356519
C       1.848373      0.270169     -0.851078
O       2.034037     -0.992220     -1.033659
H      -1.867334      1.155743     -0.202459
H      -2.265982     -0.256613      0.786590
H      -1.198811      1.001099      1.428348
H      -0.541495     -0.854544     -0.931716
H       0.129417     -1.000687      0.694591
H       2.898374     -0.190331     -1.318341
