15
Extracted from Q-Chem output
O       1.929108      0.968584      0.392416
C       1.010420      0.364129     -0.490939
C       0.633903     -1.102265     -0.166899
C      -0.888895     -1.004436     -0.126308
C      -1.104543      0.334626      0.702031
C      -0.377890      1.004091     -0.541156
C      -1.385875      0.048465     -1.027891
H       1.593170      0.919836      1.290063
H       1.074373     -1.426667      0.779628
H       0.962010     -1.799764     -0.938147
H      -1.483651     -1.890164      0.072058
H      -2.105083      0.653590      0.963220
H      -0.458193      0.324815      1.574721
H      -0.457307      2.066833     -0.744809
H       1.483639      0.450249     -1.469315
