14
Extracted from Q-Chem output
C      -1.960991      0.283059     -0.002720
C      -0.774922     -0.390219      0.710961
O      -0.602825     -0.081049      1.967173
C       0.477472     -0.286806     -0.019794
C       1.282593      0.403277     -1.006002
C       1.893481     -0.268024      0.233402
H      -2.000622     -0.003897     -1.056775
H      -2.883225     -0.017245      0.490882
H      -1.859241      1.365292      0.084811
H      -0.930434     -1.514267      0.482284
H       1.153710      1.479405     -1.075342
H       1.490092     -0.087671     -1.950151
H       2.475643     -1.161782      0.036807
H       2.210899      0.310394      1.093837
