12
Extracted from Q-Chem output
N      -2.196119     -0.446045     -0.436465
C      -0.913221     -0.203426     -0.191731
C       0.178834     -1.027565     -0.510992
C       1.170067     -0.249939     -0.015519
O       2.483784     -0.493320     -0.013673
C       0.721299      1.038569      0.604195
O      -0.692625      0.970648      0.431087
H      -2.913416      0.203597     -0.172042
H      -2.427754     -1.305058     -0.898645
H       0.945728      1.110416      1.669945
H       2.593123     -1.349724     -0.445493
H       1.101485      1.923995      0.091941
