17
Extracted from Q-Chem output
C      -2.127000     -0.263637      0.334375
C      -0.700709     -0.150617      0.806115
O      -0.096816     -1.419876      1.109283
C       0.976687     -1.143223      0.208273
C       0.688008     -1.326907     -1.205427
C       0.405410      0.206033     -0.203631
C       1.194705      1.483044     -0.231803
H      -2.528802      0.725176      0.100529
H      -2.184395     -0.899243     -0.549871
H      -2.742485     -0.708140      1.117699
H      -0.622673      0.513229      1.675463
H       1.972749     -1.237319      0.629693
H       1.592888     -0.993096     -1.738409
H      -0.052687     -0.095691     -1.268781
H       0.624967      2.297442     -0.682181
H       1.471782      1.778381      0.782292
H       2.111510      1.357575     -0.809353
