13
Extracted from Q-Chem output
C      -2.216488      0.420972     -0.147157
C      -0.751188      0.480267      0.193290
C       0.086285     -0.676195     -0.264016
N       1.047627     -1.283986      0.767361
C       1.519073     -0.582904     -0.152823
N       2.657339     -0.123592     -0.687649
O      -0.260349      1.399786      0.802304
H      -2.723496      1.309236      0.221893
H      -2.347656      0.339859     -1.229307
H      -2.659861     -0.474051      0.296211
H      -0.376312     -1.380191     -0.952825
H       2.587912      0.670438     -1.297824
H       3.484131     -0.172606     -0.115857
