13
Extracted from Q-Chem output
C      -1.948732      0.537735     -0.217651
C      -0.545744      0.139102      0.176257
C      -0.132160     -1.145388     -0.181535
N       1.143377     -1.727721      0.352291
C       1.729442     -0.757864     -0.062009
N       2.383150      0.311586     -0.345864
O       0.173004      0.977213      0.781841
H      -1.911978      1.449101     -0.816222
H      -2.473143     -0.240241     -0.772657
H      -2.509900      0.764307      0.690438
H      -0.684249     -1.817277     -0.818783
H       1.821880      1.120675     -0.004973
H       2.967365      0.358984     -1.164550
