17
Extracted from Q-Chem output
C       2.101322      0.113251      0.431115
C       0.680048      0.066014     -0.072420
C      -0.042919     -1.130093     -0.010651
C      -1.452989     -1.210977      0.475260
C      -1.935253     -0.282335     -0.545107
C       0.060393      1.180544     -0.593690
O       0.402555      2.458982     -0.272622
H       2.151243      0.268797      1.513251
H       2.685388      0.895550     -0.057154
H       2.583264     -0.848554      0.239200
H       0.472945     -2.065045     -0.238389
H      -1.587664     -0.879585      1.506071
H      -1.840963     -2.226043      0.374229
H      -2.112711     -0.670900     -1.538733
H      -2.423423      0.647183     -0.295059
H      -0.483187      1.141335     -1.520473
H       0.758029      2.481934      0.618715
