13
Extracted from Q-Chem output
C       2.014637      0.562808      0.006043
C       0.639333      0.339541     -0.235374
C       0.340430     -1.015136      0.057591
N      -1.074213     -0.953649      0.292613
C      -1.444021      0.285059     -0.088264
O      -2.727499      0.621420     -0.023857
N      -0.481305      1.097246     -0.449726
H       2.296031      0.542849      1.052991
H       2.593784      1.275105     -0.577506
H       1.690717     -0.917233      0.466326
H       0.625753     -1.770801     -0.669846
H      -1.718031     -1.703124      0.466375
H      -2.789614      1.547237     -0.283809
