12
Extracted from Q-Chem output
O       2.538009      0.684744     -1.109586
C       1.620181      0.003274     -0.931364
C       0.615042     -0.830489     -0.800315
C      -0.549305     -0.676789      0.144235
C      -0.876076      0.770212      0.469813
O       0.239059      1.470258      0.987159
H       0.697250     -1.713194     -1.422339
H       0.478709      1.091390      1.835610
H      -1.432665     -1.134943     -0.308096
H      -0.365292     -1.226566      1.076159
H      -1.724270      0.813328      1.163673
H      -1.159574      1.302508     -0.439852
