12
Extracted from Q-Chem output
O       2.057657      1.066795     -1.301903
C       1.289245      0.433029     -0.711403
C       0.775701     -0.779520     -0.240980
C      -0.713300     -0.703658      0.059538
C      -0.871579      0.781762      0.488901
O       0.446121      1.260905      0.671775
H       1.233036     -1.692902     -0.599082
H       0.969140      0.097770      0.840122
H      -1.332776     -0.933729     -0.808434
H      -0.979104     -1.405563      0.852237
H      -1.434170      0.885584      1.418004
H      -1.368479      1.366383     -0.290708
