9
Extracted from Q-Chem output
N       3.003913     -0.031099      0.701942
C       1.982252      0.085385      0.173916
C       0.735040      0.219673     -0.448564
C      -1.632725     -0.096453     -0.081806
N      -0.368182     -0.118895      0.243583
H       0.629106      0.584447     -1.456548
H      -2.355987     -0.417138      0.647927
H      -1.920972      0.241199     -1.064910
H      -0.169268     -0.447999      1.182192
