13
Extracted from Q-Chem output
C      -1.498539     -0.675317     -0.046379
C      -0.270304      0.082827      0.342457
C      -0.093010      1.514299      0.402940
C       0.951551      0.308255     -0.549483
C       1.643105     -0.558234      0.484231
O       2.708650     -1.062185      0.586022
O       0.579548     -0.634255      1.314451
H      -2.204177     -0.673172      0.785042
H      -1.258848     -1.710856     -0.286573
H      -1.978909     -0.207553     -0.905618
H       1.221695      1.425730     -0.177869
H      -0.683727      1.937794     -0.423709
H       0.956954      0.180966     -1.622550
