17
Extracted from Q-Chem output
O       2.400569     -0.695514     -0.375238
C       1.467066     -0.630087      0.678325
C       0.122021     -0.139471      0.217105
C      -0.828434     -1.107228     -0.407439
C      -1.092418     -0.557109      0.978152
C      -0.689858      1.712573     -1.094653
O       0.290855      1.173894     -0.246878
H       2.395823      0.165312     -0.802132
H       1.823480      0.031941      1.478598
H       1.375560     -1.637192      1.087526
H      -0.728120      1.190062     -2.056106
H      -0.498364     -2.132454     -0.512665
H      -1.485418     -0.771421     -1.197673
H      -0.964847     -1.203601      1.837176
H      -1.899211      0.158021      1.076144
H      -1.686894      1.697897     -0.639084
H      -0.410547      2.750386     -1.270129
