17
Extracted from Q-Chem output
O       2.737455     -0.131808     -0.784494
C       1.760888     -0.865713     -0.080537
C       0.408005     -0.218388     -0.175727
C      -0.847211     -1.006277      0.261364
C      -1.985003     -0.116413      0.378508
C      -0.609365      1.569777     -0.473914
O       0.415317      1.064520      0.351923
H       2.689593      0.776105     -0.474788
H       2.049660     -0.982493      0.977102
H       1.719942     -1.861453     -0.525392
H      -0.583496      0.501190     -1.146408
H      -0.586885     -1.382736      1.260983
H      -0.989933     -1.858949     -0.401682
H      -2.067560      0.496687      1.266135
H      -2.917248     -0.347435     -0.123345
H      -1.332518      2.195638      0.044023
H      -0.157994      2.149649     -1.284341
