18
Extracted from Q-Chem output
C      -1.855158     -0.605375     -0.544406
C      -1.260566      0.611967     -0.739976
C       0.779023      0.590528      0.306800
C       0.423433      1.290705      1.580468
N       1.153319     -0.663095      0.372095
C       1.858539     -1.201818     -0.704133
O       2.603945     -0.593159     -1.425349
H      -1.949160     -1.307990     -1.364021
H      -0.813229     -1.647131      0.126231
H      -2.555500     -0.751229      0.269688
H      -0.851003      0.853291     -1.712217
H      -1.529382      1.447437     -0.109289
H       1.099570      1.174170     -0.550922
H      -0.002984      2.276543      1.401113
H      -0.281842      0.693544      2.161677
H       1.326971      1.408272      2.184351
H      -0.009549     -1.498565      0.428073
H       1.702897     -2.289134     -0.803694
