16
Extracted from Q-Chem output
C       1.210854      1.126200      0.128179
C       0.336865     -0.174657     -0.013701
C      -0.748082     -0.503656      1.023132
C      -1.795969     -0.116325     -0.043535
C      -0.712349     -0.286589     -1.130837
C       1.672803     -0.640991     -0.042952
N       2.817918     -1.038708     -0.068787
H       1.115447      1.787813     -0.727533
H       2.656054      0.248239      0.055847
H       1.101069      1.599291      1.099540
H      -0.717948      0.067640      1.949693
H      -0.775121     -1.569299      1.253908
H      -2.682896     -0.742380     -0.120739
H      -2.104354      0.923918      0.056317
H      -0.727663     -1.283750     -1.572150
H      -0.651267      0.459313     -1.921930
