19
Extracted from Q-Chem output
C      -2.939631     -1.102397      0.582060
C      -2.118060     -0.791202     -0.667741
C      -0.707294     -0.392402     -0.349519
C       1.934170      0.436916      0.245160
C       3.244697      1.171969      0.393960
C      -0.208618      0.795860     -0.676109
O       1.029201      1.280593     -0.440213
H      -3.955515     -1.408165      0.323573
H      -2.484094     -1.911477      1.158093
H      -3.001187     -0.227110      1.231836
H      -2.111922     -1.672842     -1.317738
H      -2.602265      0.006346     -1.238637
H      -0.102543     -1.118667      0.183416
H       2.065744     -0.493145     -0.321658
H       1.516842      0.172827      1.224860
H       3.966254      0.547187      0.922694
H       3.107205      2.094318      0.959459
H       3.656608      1.426142     -0.583326
H      -0.804734      1.532183     -1.205744
