19
Extracted from Q-Chem output
C      -2.675721     -0.906926      0.697528
C      -1.667632     -0.950805     -0.451108
C      -0.492406     -0.037076     -0.268688
C       2.008754      0.043112     -0.346424
C       2.693981      0.787122      0.736001
C      -0.289059      1.137597     -0.959985
O       0.808616      1.753694     -0.983650
H      -3.491889     -1.616311      0.541159
H      -2.195268     -1.154925      1.647337
H      -3.106387      0.091583      0.797550
H      -1.313432     -1.981841     -0.570906
H      -2.168130     -0.706313     -1.393204
H       0.014852     -0.073666      0.692295
H       2.296023      0.222806     -1.370380
H       1.765699     -0.986911     -0.127150
H       3.599020      0.227210      1.008878
H       2.081092      0.839005      1.637577
H       2.963704      1.795217      0.435469
H      -1.129438      1.593493     -1.507133
