9
Extracted from Q-Chem output
C      -1.272025     -0.375130      0.313317
C      -0.523688      1.650447     -0.736837
C      -0.156772      0.526174     -0.182945
C       1.218652      0.178341     -0.056611
C       2.371040     -0.127704      0.058726
H      -1.152412     -0.540352      1.383831
H      -1.225250     -1.330639     -0.208519
H      -2.247340      0.077847      0.133416
H       3.396156     -0.395776      0.161485
