9
Extracted from Q-Chem output
C      -1.372363     -0.264785      0.209093
C      -0.967720      1.053853     -0.940606
C       0.073174      0.556501     -0.433133
C       1.363779      0.220937     -0.050825
C       2.479022     -0.069558      0.279983
H      -0.698291     -0.892356      0.799322
H      -1.935348     -0.908175     -0.457674
H      -2.007146      0.287279      0.892913
H       3.473252     -0.320490      0.566793
