13
Extracted from Q-Chem output
C      -1.389713     -0.982079      0.487460
C      -0.317868      0.044453      0.329747
O      -0.545866      0.926421     -0.907957
C       1.063743     -0.378675     -0.004824
C       1.256982      1.051601     -0.297472
H      -1.086102     -1.699803      1.254024
H      -1.555556     -1.541591     -0.449237
H      -2.344215     -0.557386      0.806216
H      -0.930240      1.735163     -0.567449
H       1.614587     -0.717448      0.873647
H       1.231934     -1.042048     -0.866487
H       1.387650      1.719793      0.541036
H       1.578155      1.415733     -1.268723
