11
Extracted from Q-Chem output
N       2.957467     -0.570284     -0.110346
C       1.933336     -0.080048      0.051173
C       0.618108      0.550915      0.224267
C      -0.471990      0.109130     -0.770302
C      -1.170567     -0.447769      0.475862
O      -0.108412      0.020984      1.330723
H       0.766495      1.630615      0.313381
H      -0.979217      0.932639     -1.266245
H      -0.154891     -0.626925     -1.504104
H      -2.123946      0.015250      0.736913
H      -1.266382     -1.534507      0.518678
