16
Extracted from Q-Chem output
C      -2.259521      0.155855     -0.048883
C      -0.937081     -0.341538      0.477402
C       0.366097      0.639652     -0.477676
C       1.629681     -0.087426     -0.755435
C       2.472520     -0.282021      0.352904
O       2.170482      0.027281      1.511876
H      -3.078665     -0.260800      0.540078
H      -2.324351      1.242984      0.016102
H      -2.415479     -0.137483     -1.088429
H      -0.694149     -0.059724      1.496681
H      -0.861573     -1.438636      0.406289
H      -0.209411      0.916688     -1.351838
H       0.458379      1.396190      0.295663
H       1.858903     -0.411248     -1.758714
H       0.239500     -0.548783     -0.192968
H       3.454324     -0.750078      0.146529
