16
smiles: [C:1]([C@@:2]([O:3][H:12])([C:6](=[O:7])[H:16])[H:11])([H:8])([H:9])[H:10].[C:4](=[N:5][H:15])([H:13])[H:14]
C       -1.01553200      -0.91088700      -1.24047700
C       -0.32885100       0.40446300      -1.58627600
O       -1.21259400       1.47968600      -1.46973300
C        0.76329600       0.01406100       2.63919100
N        0.53329100      -0.91170400       1.81519300
C        0.88488500       0.61896600      -0.71606200
O        1.03207500       1.61084400      -0.05350600
H       -0.33824700      -1.75743800      -1.37262700
H       -1.87417800      -1.05147000      -1.89566600
H       -1.37012600      -0.89402500      -0.20868100
H        0.05404400       0.34005800      -2.61867100
H       -0.78631400       2.12948400      -0.89499200
H        1.02360800       1.00357300       2.26183800
H        0.72241700      -0.09774900       3.72751900
H        0.30334600      -1.78018700       2.29644600
H        1.64173000      -0.18883000      -0.71941000
