16
Extracted from Q-Chem output
C      -1.451220     -0.889447     -0.525974
C      -0.387226      0.153451     -0.798284
O      -0.928593      1.419703     -0.752916
C       0.263915      0.046519      1.413726
N       1.590986      0.012032      1.374239
C       1.400519      0.410445     -0.177939
O       1.649805      1.571185     -0.485816
H      -1.014256     -1.884843     -0.417725
H      -2.140282     -0.920308     -1.373213
H      -2.039855     -0.653175      0.361491
H       0.038402     -0.051534     -1.787100
H      -0.160170      2.014110     -0.853813
H      -0.217459      1.019427      1.404249
H      -0.325513     -0.804328      1.745646
H       1.964768     -0.926086      1.468446
H       1.789025     -0.508309     -0.630930
