13
Extracted from Q-Chem output
C      -0.995688      0.473841     -0.279278
C      -0.996150     -1.046906     -0.439275
O       0.362071     -1.433632     -0.663361
C       1.218006     -0.483154     -0.228433
N       2.454709     -0.675923     -0.169659
C       0.430266      0.752361      0.114179
N       0.985614      1.761577      0.621047
H      -1.203020      0.968463     -1.231334
H      -1.714561      0.830664      0.457110
H       0.323319      2.514963      0.793435
H      -1.581211     -1.394993     -1.288503
H      -1.357050     -1.544370      0.464688
H       2.895611      0.178288      0.166071
