16
Extracted from Q-Chem output
C       1.926511      0.170898      0.232942
N       0.935685     -0.679640     -0.240386
C       0.115515     -0.629904      0.959881
C      -1.194727      0.084455      0.601534
C      -0.772434      1.084489     -0.500682
C      -0.342615     -0.200475     -1.228437
C      -1.369896     -0.900938     -0.486711
H       2.963674     -0.027712     -0.052302
H       1.162120     -0.033243      1.524941
H       1.712863      1.231364      0.389916
H       0.111649     -1.574098      1.508130
H      -1.891106      0.294235      1.407104
H      -0.017906      1.845987     -0.285929
H      -1.647941      1.540878     -0.955112
H      -0.074608     -0.310186     -2.271562
H      -1.706444     -1.929345     -0.492565
