17
Extracted from Q-Chem output
C       2.218561      0.227384      0.201690
C       0.747802      0.027127      0.064219
C       0.120873     -1.327315     -0.140674
C      -1.388398     -1.068886      0.036640
C      -1.574876      0.440381     -0.188703
C      -0.187129      0.971300      0.028887
O       0.059452      2.309204      0.097900
H       2.461029      1.281050      0.337725
H       2.749270     -0.133462     -0.684831
H       2.612649     -0.328547      1.057501
H       0.492315     -2.072074      0.569493
H      -1.678062     -1.316865      1.059282
H      -2.004363     -1.672813     -0.629996
H      -1.914709      0.672755     -1.205011
H      -2.304883      0.878569      0.500231
H       0.351991     -1.712973     -1.141534
H      -0.768648      2.779364      0.201883
