17
Extracted from Q-Chem output
C       2.096603      0.208359      0.274649
C       0.649003     -0.067786     -0.025397
C       0.050969     -1.383074      0.086680
C      -1.405197     -1.138978      0.309803
C      -1.683910      0.224113     -0.336758
C      -0.401630      0.941198     -0.040506
O      -0.254866      2.204714     -0.525547
H       2.236693      0.282322      1.353575
H       2.448043      1.136125     -0.181423
H       2.721402     -0.605176     -0.094222
H       0.584190     -2.220318      0.517930
H      -1.530425     -0.971017      1.403222
H      -2.089927     -1.930692      0.007877
H      -1.819183      0.134634     -1.432286
H      -2.566932      0.719632      0.062901
H       0.448241     -0.173404     -1.145711
H       0.517479      2.611990     -0.127541
