13
Extracted from Q-Chem output
C      -1.894299     -0.131336     -0.325871
C      -0.549953      0.114901      0.262715
O       0.275646     -1.173939      0.426625
C       1.722907     -0.809718      0.218078
O       2.534288     -1.650790      0.432700
C       1.685139      0.557841     -0.145867
C       0.405396      1.051247     -0.112810
H      -2.497548     -0.801970      0.285254
H      -2.419384      0.823604     -0.385004
H      -1.824116     -0.548493     -1.335666
H      -0.130264     -0.687319      1.329315
H       2.584737      1.104600     -0.374044
H       0.131226      2.068916     -0.359121
