12
Extracted from Q-Chem output
C      -1.753649     -0.463311     -0.158446
C      -0.636727      0.246198      0.541743
O       1.277494     -0.260782     -1.119587
C       2.092103      0.139159      0.018706
C       0.671822      0.351550     -0.049236
O      -0.132759      1.459727     -0.103738
H      -2.689996      0.083955     -0.039643
H      -1.537595     -0.567222     -1.221239
H      -1.883446     -1.459534      0.269379
H      -0.728557      0.353579      1.620091
H       2.758585      0.972189     -0.180301
H       2.505497     -0.682003      0.595314
