18
Extracted from Q-Chem output
C      -0.784483      2.030128      0.899984
C      -0.079663     -0.807936     -0.776353
C      -0.879031     -2.061261     -0.535046
C       0.531267     -0.054488      0.365976
C       1.410501     -0.811015     -0.586713
C       0.526046      1.453529      0.377542
H      -0.772023      3.121779      0.895755
H      -1.626376      1.700656      0.286565
H      -0.975938      1.704021      1.925197
H      -0.441387     -0.188683     -1.592300
H      -0.877119     -2.709631     -1.414456
H      -0.462462     -2.631724      0.298538
H      -1.918266     -1.827991     -0.291133
H       0.399053     -0.511290      1.343615
H       1.871738     -1.728181     -0.240964
H       2.018963     -0.236514     -1.274606
H       0.709715      1.816839     -0.639197
H       1.360783      1.817119      0.985510
