18
Extracted from Q-Chem output
C      -1.028005      1.213975      0.532402
C      -0.420995     -0.356029     -0.416028
C      -1.333100     -1.522314     -0.171566
C       0.934146     -0.205166      0.212289
C       2.029760     -0.591539     -0.637523
C       0.893063      1.274474      0.362773
H      -0.922989      2.303693      0.668270
H      -1.923735      1.174173     -0.103872
H      -1.264689      0.793636      1.508187
H      -0.431969      0.018588     -1.439503
H      -1.008619     -2.392953     -0.744143
H      -1.346977     -1.796425      0.885637
H      -2.352963     -1.291163     -0.485323
H       0.953522     -0.697361      1.188016
H       2.769990     -1.328495     -0.357298
H       2.104565     -0.145549     -1.622349
H       1.004602      1.814174     -0.574290
H       1.350322      1.781346      1.214097
