14
Extracted from Q-Chem output
O      -0.201130      1.818497      1.381129
C      -0.165499      0.911021      0.540497
C      -1.342352      0.158470     -0.122960
C      -0.540769     -1.160743     -0.141295
C       0.634227     -0.514389      0.551043
C       1.076436      0.783509     -0.456875
H      -2.189113      0.119106      0.559404
H      -1.673763      0.564477     -1.079510
H      -0.973281     -1.927034      0.500406
H      -0.341167     -1.606415     -1.119760
H       1.619533     -0.322696     -0.296055
H       1.310585     -0.895015      1.306320
H       1.841830      1.458789     -0.102933
H       0.927411      0.659871     -1.525688
