12
Extracted from Q-Chem output
O       0.266741     -1.415938      1.966402
C      -0.047095     -0.831991      0.988173
C       0.300047     -0.821924     -0.533620
N      -1.059447     -0.311521     -0.691582
C      -1.016998      0.263741      0.577484
C       0.847081      1.447889      0.176128
C       1.224635      0.395149     -0.529425
H       0.593517     -1.699884     -1.100821
H      -1.278846      0.267499     -1.494224
H      -1.874369      0.694009      1.086876
H      -0.223637      1.590493      0.596824
H       2.193076      0.356309     -1.011608
