13
Extracted from Q-Chem output
C       0.571174      0.623770      1.294148
O       0.646719     -0.800397      1.141533
C       0.244531     -1.089544     -0.150003
C      -1.068488     -0.551926     -0.624365
O      -1.536395      0.485235      0.178530
C      -0.360768      1.261686      0.323653
C       0.232881      0.003294     -1.170914
H       1.567778      1.068051      1.209273
H       0.173308      0.830769      2.291657
H       0.560372     -2.066340     -0.494560
H      -1.820411     -1.119289     -1.157388
H       0.155959      1.243566     -0.866672
H       0.705007     -0.015100     -2.145664
