15
Extracted from Q-Chem output
C      -1.463137      0.847340      0.772023
N      -0.657663     -0.361398      0.865201
C       0.186714     -0.715092     -0.165860
C       1.565865     -0.107372     -0.295415
O       1.621753      1.264294      0.011075
C       0.051228     -2.135848     -0.682863
N      -0.470717     -1.452317     -1.615305
H      -2.261295      0.752654      0.025605
H      -1.915839      1.055235      1.741288
H      -0.830749      1.687997      0.493070
H      -1.167188     -1.153692      1.228120
H      -0.404848     -0.291287     -1.379215
H       1.925606     -0.233017     -1.315870
H       2.225171     -0.687624      0.363064
H       1.564852      1.361627      0.963722
