13
Extracted from Q-Chem output
C       2.118512      0.317340      0.056138
O       0.974261     -0.452882      0.329817
C      -0.218487      0.246872      0.095320
C      -1.338824     -0.730073      0.368407
C      -2.788992      0.134897     -0.118454
N      -2.893756     -0.023769      1.051223
H       2.153261      0.619673     -0.997950
H       2.151151      1.218773      0.680626
H       2.986187     -0.301428      0.277950
H      -0.309692      1.111875      0.765465
H      -0.270324      0.612200     -0.938092
H      -1.220666     -1.176501      1.353199
H      -1.428143     -1.525606     -0.364570
