12
Extracted from Q-Chem output
N      -1.967102      0.186264     -0.190759
C      -0.615895      0.023178     -0.064910
C       0.346269      0.964708     -0.133970
N       1.611246      0.258360      0.002106
C       1.356221     -1.263989      0.182237
C       0.008123     -1.287159      0.122452
H      -2.349161      1.107649     -0.078224
H      -2.544032     -0.553937      0.164923
H       0.309856      2.031830     -0.275594
H       2.158571      0.548743      0.808943
H       2.216221      0.340555     -0.812035
H      -0.573082     -2.197948      0.200186
