15
Extracted from Q-Chem output
O       1.753039     -0.668601      0.001586
C       1.051658      0.382186      0.752499
C      -0.013841      1.044895     -0.093573
C      -1.151083      0.144743     -0.468433
O      -2.093572      0.122325      0.507470
C      -1.223567     -0.534428     -1.606747
C       0.785753     -0.867290      1.499307
H       2.682754     -0.647659      0.247570
H       1.768893      1.123242      1.117582
H      -0.411079      1.885308      0.481984
H       0.455363      1.455282     -0.989967
H      -2.705484     -0.599012      0.343520
H      -2.057448     -1.189055     -1.830623
H      -0.423800     -0.469996     -2.329453
H       1.619276     -0.967065      2.217963
