11
smiles: [N:1]([C-:2]=[C:3]([N+:4]#[C:5][H:11])[H:10])([H:8])[H:9].[N:6]#[N:7]
N        2.27596600      -0.04071800      -0.20301600
C        1.12919200      -0.42744600       0.32273400
C        0.22659300       0.66839400       0.50872800
N       -0.95569100       0.42928000       0.98620800
C       -1.98160900       0.21519100       1.54263400
N       -2.10130200      -1.44479600      -1.61239700
N       -1.19457700      -1.47731800      -2.21328800
H        2.50760800       0.91729800      -0.45448600
H        2.99631000      -0.71953000      -0.37667500
H        0.43117500       1.71752800       0.28125600
H       -2.93582100      -0.04462100       1.10294000
