16
smiles: [C:1]([C@@:2]1([H:11])[O:3][C:6](=[O:7])[N:5]([H:15])[C:4]1([H:13])[H:14])([H:8])([H:9])[H:10].[H:12][H:16]
C       -2.01026200      -0.29087800      -0.21590100
C       -0.52233900      -0.32509600      -0.49500000
O       -0.04665200       1.00371000      -0.75181300
C        0.31977300      -0.79569500       0.70334200
N        0.70175400       0.47850200       1.25983000
C        0.63313300       1.47661000       0.32242500
O        1.07095600       2.58678200       0.39637900
H       -2.39630500      -1.30523200      -0.09698900
H       -2.53730000       0.18586900      -1.04214900
H       -2.21562300       0.27104200       0.69746800
H       -0.31167300      -0.91419300      -1.38785600
H        2.10404500       0.13672800      -2.07889900
H       -0.27430100      -1.38865500       1.40069100
H        1.18432000      -1.38751100       0.38543900
H        1.37600200       0.57577200       1.99658500
H        2.59795100      -0.40327400      -2.21607700
