13
Extracted from Q-Chem output
O       1.766634      1.183321      0.783957
C       1.140828      1.533596     -0.292785
C       0.285262     -1.441727     -0.548271
C      -0.683509     -0.319444     -0.299256
N      -0.665511      0.335490      0.999947
C      -0.296937      1.115748     -0.190184
H       1.128821      0.745934      1.410421
H       0.415672     -1.596521     -1.620352
H       1.263493     -1.241035     -0.113348
H      -0.098604     -2.366077     -0.112979
H      -1.667022     -0.479316     -0.733985
H      -1.584697      0.562201      1.352100
H      -1.004719      1.832783     -0.591135
