13
Extracted from Q-Chem output
O       1.895716      1.006557      0.344454
C       1.026914      0.666540     -0.603880
C       0.244375     -1.318148     -0.335252
C      -0.942321     -0.454412     -0.080313
N      -0.722840      0.411200      1.085681
C      -0.410897      0.904914     -0.268100
H       1.418033      1.088055      1.188923
H       1.143759     -0.454900     -1.043979
H       0.685878     -1.807631      0.527975
H       0.167511     -1.970104     -1.204834
H      -1.956852     -0.743340     -0.330727
H      -1.610154      0.796492      1.388506
H      -0.929416      1.779100     -0.641923
