12
Extracted from Q-Chem output
C       1.872784      0.633372      0.740917
O       1.678204     -0.403220     -0.022686
C       0.556021     -0.913541     -0.407398
C      -0.692097     -0.403525      0.150492
C      -1.647420      0.428949     -0.600973
O      -1.882610     -0.948810     -0.368662
H       2.906264      0.861989      0.932123
H       1.040297      1.250074      1.042519
H       0.632495     -1.786102     -1.035375
H      -0.674440     -0.267779      1.240113
H      -1.418629      0.691483     -1.629267
H      -2.304194      1.106558     -0.062732
