11
Extracted from Q-Chem output
N      -1.753896     -0.425449     -0.966550
C      -0.902703      0.221059     -0.153039
O      -1.186483      1.128294      0.597820
C       1.549388      0.358956      0.624521
C       0.546276     -0.313317     -0.255306
O       0.795925     -1.216465     -1.012342
H      -1.404792     -1.165782     -1.549805
H      -2.722229     -0.163032     -0.985748
H       1.232455      0.282071      1.665982
H       1.580231      1.425593      0.395147
H       2.527414     -0.094340      0.484244
