10
Extracted from Q-Chem output
O       0.820607      1.832712     -1.095914
C       0.956736      0.689240     -0.781346
C       0.439170     -2.600178      0.077394
N       0.120961     -1.493883     -0.103540
C      -0.225637     -0.144305     -0.277986
C      -0.763451      0.498535      1.012410
O      -0.914498     -0.094264      2.031998
H       1.927753      0.161310     -0.810469
H      -1.020112     -0.049033     -1.026201
H      -0.990290      1.573102      0.890701
