10
Extracted from Q-Chem output
O       1.952890      0.846917      0.396335
C       1.500424      0.294771     -0.490717
C       1.136974     -1.859723     -0.120250
N       0.146399     -1.208465     -0.151972
C      -0.772478     -0.221206     -0.305808
C      -1.110641      0.605949      0.822211
O      -0.539595      0.596802      1.892754
H       1.297266      0.188873     -1.540702
H      -1.419606     -0.295390     -1.169271
H      -1.925525      1.325980      0.612251
