13
Extracted from Q-Chem output
C       1.440016      0.670370      0.227248
C       0.290709      0.017364     -0.513376
C      -0.201599     -1.241828     -0.034578
N      -1.814921     -0.367178      0.996662
C      -1.980949      0.587343      0.339881
O      -0.577549      0.769701     -1.102309
H       1.917502      1.405206     -0.418775
H       1.032569      1.189657      1.096933
H       2.185923     -0.051057      0.564898
H       0.757102     -0.884112     -1.207589
H      -0.948673     -1.742446     -0.633914
H       0.390811     -1.847664      0.643845
H      -2.465568      1.491444      0.033472
