12
Extracted from Q-Chem output
C       1.605957     -0.292844     -0.925766
C       0.609076     -0.876080     -0.281728
C      -0.424024      0.886936      1.806417
C      -1.324616      0.731224      0.745161
O      -0.992495      0.968523     -0.658518
C      -0.766039     -0.316807     -0.232701
H       1.475128      0.670066     -1.404922
H       2.579272     -0.761809     -0.988123
H       0.733621     -1.845896      0.188712
H       0.546084      1.213312      1.404107
H      -2.396108      0.657785      0.897409
H      -1.542371     -1.043300     -0.478857
