14
smiles: [C:1]1([H:7])([H:8])[C@@:2]2([H:9])[C:3]([H:10])([H:11])[C-:4]([H:12])[O+:5]=[C:6]12.[H:13][H:14]
C        1.73698300       0.24638400      -0.48283100
C        0.70762500       0.30770000       0.60057000
C       -0.64886400       0.89505600       0.28512300
C       -1.05560100       0.08023500      -0.88351200
O       -0.28133400      -0.82996200      -1.19160400
C        0.91233300      -0.99381400      -0.17741200
H        1.55549900       0.79813100      -1.40069800
H        2.78079600       0.20850900      -0.19818900
H        1.02091600       0.32677000       1.63566600
H       -0.69817300       1.96438700       0.04825800
H       -1.36976100       0.72245300       1.09487500
H       -1.97170700       0.19405400      -1.46411600
H       -1.76116500      -2.13516500       1.31895900
H       -1.04137700      -2.15727200       1.12968300
