13
Extracted from Q-Chem output
C      -0.769889      0.263030      1.019515
C      -0.556661     -0.942798      0.094723
O      -1.153476     -0.158057     -0.984650
C      -0.460872      0.944636     -0.320271
C       1.005895      0.559848     -0.604050
O       1.709011      0.026396      0.512652
C       0.934250     -0.855587     -0.292160
H      -1.820977      0.372829      1.272368
H      -0.113966      0.417695      1.870469
H      -1.011646     -1.919163      0.240492
H      -0.816064      1.931472     -0.605700
H       1.593953      1.006925     -1.394495
H       1.460441     -1.647226     -0.808893
