13
Extracted from Q-Chem output
C      -0.753458      0.241073      1.014815
C      -0.499851     -0.830612     -0.046876
O      -1.064660      0.068489     -1.043939
C      -0.445807      1.095466     -0.217766
C       1.099092      1.018105     -0.559244
O       1.690087      0.197350      0.407128
C       1.002705     -0.775451     -0.363580
H      -1.808595      0.288163      1.270384
H      -0.112854      0.294412      1.889555
H      -0.951963     -1.820210     -0.034331
H      -0.850088      2.092214     -0.381619
H       1.035097     -0.265809     -1.435162
H       1.608096     -1.666007     -0.505013
