13
Extracted from Q-Chem output
C       1.253796     -0.583717     -0.198789
C       0.601104      0.483730      0.645152
C      -0.644410      0.937592     -0.107340
C      -1.113127     -0.507763     -0.388630
C       0.028084     -1.261730      0.342434
H       1.279809     -0.356500     -1.262172
H       2.201170     -0.958065      0.177146
H       1.219790      1.100520      1.292221
H      -0.427838      1.561104     -0.977299
H      -1.348017      1.474550      0.527918
H      -2.096575     -0.728565      0.023401
H      -1.121455     -0.784746     -1.446427
H       0.105621     -0.287159      1.445851
