14
Extracted from Q-Chem output
C      -1.063038     -0.139122      1.108621
C      -0.716191      0.451661     -0.228023
C       0.879961      0.641830     -0.236444
C       0.981630     -0.895351     -0.046233
C      -0.531218     -1.020671      0.022510
C       0.730692      1.120872     -1.571901
H      -2.128576     -0.206569      1.291404
H      -0.466338      0.077889      1.987259
H      -1.450942      0.975024     -0.823271
H       1.249392      1.285196      0.566159
H       1.408178     -1.354147     -0.935875
H       1.519063     -1.226123      0.844354
H      -1.114283     -1.830194     -0.393568
H       0.637817      2.221343     -1.495647
