17
smiles: [C:1]([C:2]([C:3]([C:4]([C:6]#[C:7][H:17])([H:13])[H:14])=[O:5])([H:11])[H:12])([H:8])([H:9])[H:10].[H:15][H:16]
C        2.41960800      -0.33176000      -0.75961200
C        1.05362200       0.32012500      -0.65777100
C        0.09456800      -0.42549200       0.23341300
C       -1.35619500       0.06577300       0.30412600
O        0.40576200      -1.40271400       0.86218700
C       -1.59169100       1.45608600      -0.06341200
C       -1.78741100       2.59913400      -0.36002400
H        3.07410700       0.25402400      -1.40597500
H        2.34431700      -1.34010300      -1.16764700
H        2.88711500      -0.41259400       0.22170800
H        0.57767000       0.42789900      -1.63889400
H        1.12096300       1.34280000      -0.27187900
H       -1.71518400      -0.13323400       1.31492200
H       -1.92984000      -0.58806300      -0.36126700
H       -2.17088500      -3.07868800       2.28906000
H       -1.54242400      -2.79636400       2.00670600
H       -1.96569500       3.61554600      -0.62119400
