17
Extracted from Q-Chem output
C       2.128098      0.379130     -0.118568
C       0.896392     -0.337407     -0.642162
C      -0.272245     -0.257493      0.343552
C      -1.587366     -0.631942     -0.195699
O      -0.072309     -0.692222      1.553660
C      -0.961147      1.136473      0.219892
C      -1.369696      2.265432      0.157829
H       2.976430      0.233121     -0.788477
H       2.392369     -0.001671      0.867876
H       1.947342      1.452625     -0.029420
H       1.096606     -1.407428     -0.760209
H       0.598838      0.054471     -1.619075
H      -2.417686     -0.655830      0.496337
H      -1.808724     -0.615757     -1.259301
H      -1.191975     -2.323604      0.488306
H      -0.708201     -1.995568      1.119004
H      -1.723998      3.269936      0.128117
