13
Extracted from Q-Chem output
C       2.043456      0.171137     -0.430745
O       0.984280      0.554650      0.478908
C      -0.207584      0.389356      0.056350
C      -1.427500      0.707269      0.838023
O      -2.255843     -0.157472      0.092288
C      -1.200891     -0.856681     -0.637293
O      -1.346833     -1.291186     -1.754257
H       1.608232     -0.203987     -1.355574
H       2.630840     -0.596028      0.068663
H       2.650540      1.055297     -0.609803
H      -0.676499     -1.488221      0.163246
H      -1.703907      1.755600      0.669406
H      -1.405678      0.507398      1.913961
