17
Extracted from Q-Chem output
C       1.467414     -1.500498      1.533778
O       0.877232     -0.533015      0.706398
C      -0.128537      1.466599     -2.278627
C      -0.656729      0.486970     -1.566031
C      -0.526644     -0.597895      0.691065
C      -1.039580      0.589594     -0.111498
O      -0.629572      1.795665      0.487873
H       1.212954     -2.516296      1.205484
H       1.149931     -1.381223      2.577679
H       2.546848     -1.369447      1.472697
H       0.066151      2.437118     -1.838082
H       0.117012      1.329677     -3.324277
H      -0.855673     -0.475690     -2.031323
H      -0.870294     -1.542451      0.244730
H      -0.922023     -0.537040      1.714233
H      -2.133485      0.574875     -0.043607
H       0.322106      1.728139      0.616174
