17
Extracted from Q-Chem output
C       1.487647     -1.509516      0.279319
O       1.104842     -0.185533      0.605118
C       0.874878      0.696082     -0.617522
C      -0.466787      0.463738     -1.116629
C      -0.830737     -0.075014      1.072545
C      -1.506442      0.587660     -0.038426
O      -1.898744      1.904061      0.307662
H       0.803393     -1.939420     -0.461755
H       1.465006     -2.101880      1.193505
H       2.503464     -1.512080     -0.121379
H       1.022320      1.678987     -0.161638
H       1.668948      0.497669     -1.338100
H      -0.621459     -0.301814     -1.868759
H      -0.988363     -1.137191      1.207490
H      -0.515517      0.487895      1.942748
H      -2.367275     -0.022141     -0.340795
H      -1.738064      2.423579     -0.486717
