16
Extracted from Q-Chem output
O       1.832739      0.361381      0.329947
C       1.761248     -1.179509      0.523923
C       0.301605     -0.064925     -0.371355
C      -0.950920     -0.743825      0.144604
C      -1.747477      0.435877     -0.463730
C      -0.460900      1.285297     -0.387890
H       1.774389      0.820198      1.175102
H       2.764725     -1.536506      0.277776
H       1.578270     -1.340145      1.591185
H       0.610486     -0.382719     -1.356388
H      -1.000905     -0.710397      1.233937
H      -1.109235     -1.767789     -0.190758
H      -2.047181      0.237509     -1.492720
H      -2.607769      0.797848      0.096880
H      -0.410716      1.804023      0.571963
H      -0.228388      1.984774     -1.189923
