12
Extracted from Q-Chem output
C      -1.104709      0.485644      0.051951
C       0.268731      1.135765     -0.078813
C       1.319193      0.226039      0.145625
C       0.699754     -1.084122      0.110419
O      -0.076219     -1.582267      1.131956
C      -0.731722     -0.989278     -0.041250
H      -1.646455      0.774504      0.958311
H      -1.750976      0.740259     -0.793198
H       0.393378      2.048562     -0.654424
H       2.272402      0.396363      0.630917
H       1.676294     -0.375653     -0.898657
H      -1.325974     -1.696865     -0.606536
