14
Extracted from Q-Chem output
O       1.411209     -0.275771      1.524139
C       0.530873     -0.134462      0.464523
C      -0.982451     -0.243726      0.657294
C      -0.890418      0.287369     -0.783249
C       0.296912      1.152170     -0.354887
C       0.764031     -1.122755     -0.700160
H       2.305643     -0.278690      1.170453
H      -1.429523      0.490319      1.332848
H      -1.393160     -1.237904      0.827380
H      -1.731567      0.610715     -1.394336
H       1.041217      1.398154     -1.110625
H      -0.003281      2.017602      0.235880
H       0.229532     -2.054325     -0.428296
H      -0.346472     -0.527646     -1.466109
