11
Extracted from Q-Chem output
N      -1.803533      0.215061      0.396773
C      -0.964416      0.020149     -0.543869
O      -0.794254      0.096514     -1.793238
C       0.373589     -0.466980     -0.222890
C       1.534907      0.483636     -0.321423
O       2.568689      0.273541      0.241582
H      -2.723583      0.533255      0.124617
H      -0.539676     -0.325748      1.404119
H       0.578798     -1.519406     -0.401318
H       0.257138     -0.596350      1.399470
H       1.333151      1.379697     -0.931384
