14
Extracted from Q-Chem output
O       1.262882      2.449774     -0.230060
C       0.507021      1.544232     -0.091222
C       1.378356     -0.067571      0.116148
C       0.497927     -1.280562      0.128635
C      -0.809644     -1.146950     -0.043772
C      -1.504828      0.178529     -0.175969
N      -0.765486      1.381178      0.206598
H       2.127342     -0.016821      0.907203
H       1.896125      0.051838     -0.835544
H       0.949634     -2.257779      0.268331
H      -1.449348     -2.022676     -0.065001
H      -2.401110      0.163365      0.447574
H      -1.865407      0.308223     -1.203262
H       0.323446      0.608841      0.819706
