14
Extracted from Q-Chem output
C      -0.357854      1.586488      0.229156
C       0.086885      0.169548     -0.004535
C      -0.837249     -0.725459     -0.808942
C      -2.155169     -0.860808     -0.185268
N      -3.185275     -0.952174      0.310740
C       1.217935     -0.303532      0.434608
C       2.345271     -0.780181      0.871850
H      -0.505740      2.103389     -0.723044
H      -1.310150      1.604977      0.764843
H       0.378620      2.136891      0.810887
H       2.414515     -1.240459      1.851044
H      -0.985667     -0.307890     -1.809472
H      -0.404376     -1.718813     -0.926003
H       3.247251     -0.730788      0.272324
