14
Extracted from Q-Chem output
C      -0.360262      1.407769      0.671593
C       0.218140      0.123502      0.155846
C      -0.707371     -0.943893     -0.399105
C      -2.097695     -0.524767     -0.554676
N      -3.188053     -0.191031     -0.674322
C       1.561791     -0.184064      0.185550
C       2.609859     -0.941773      0.037007
H      -0.859021      1.926452     -0.151443
H      -1.116548      1.247646      1.444286
H       0.421215      2.058815      1.060316
H       1.306823      0.032430      1.312808
H      -0.319093     -1.269282     -1.369558
H      -0.686423     -1.827612      0.244263
H       3.175366     -0.925680     -0.894014
