18
Extracted from Q-Chem output
C      -1.867932      0.316669     -0.520846
C      -0.627515     -0.462736     -0.134990
C      -0.471070     -0.718245      1.376046
N       0.469089      0.413113      1.444728
C       0.677198      0.382047     -0.004267
O       0.709268      1.653597     -0.587204
C       1.923731     -0.341342     -0.471992
H      -1.781703      0.719331     -1.531428
H      -2.751735     -0.323586     -0.484026
H      -2.040726      1.150652      0.164157
H      -0.516219     -1.343668     -0.768812
H       0.091935      2.201172     -0.095116
H      -1.366807     -0.591049      1.988904
H      -0.023787     -1.692028      1.600874
H       1.291524      0.302640      2.023173
H       1.943958     -0.388626     -1.561706
H       1.952456     -1.359183     -0.078667
H       2.812533      0.196214     -0.135940
