10
Extracted from Q-Chem output
C      -1.420410     -0.128753      0.123384
N       0.174420      0.052902     -0.004283
C       0.830876      1.088464      0.244954
N       2.773588     -0.228130     -0.388347
N       2.271918     -1.183499     -0.629018
N       0.259937     -1.166509     -0.395611
H      -1.593698      0.082386      1.172635
H      -1.806396     -1.103674     -0.149042
H      -1.791639      0.639074     -0.546137
H       0.287156      1.965593      0.580877
