15
Extracted from Q-Chem output
N       1.431319     -0.871711     -0.893836
C       0.448854     -0.578697      0.116989
O       0.457100     -1.593721      1.085662
C       0.553736      0.790328      0.810942
N      -0.885904      1.100836      0.553236
C      -0.984436     -0.163793     -0.243415
C      -1.018745      1.149930     -0.898472
H       1.276107     -1.783033     -1.305836
H       1.421704     -0.183814     -1.634372
H       0.748244      0.686724      1.875627
H       1.245573      1.510131      0.367873
H      -0.082666     -2.325844      0.779785
H      -1.853858     -0.811591     -0.182768
H      -0.175389      1.492568     -1.493025
H      -1.980971      1.517592     -1.232694
