15
Extracted from Q-Chem output
N       1.836927      0.051080     -1.381563
C       1.679244     -0.688196     -0.262894
O       2.400597     -1.611584      0.049959
C       0.519586     -0.262054      0.627310
N      -0.418435      0.618703     -0.039911
C      -1.699705      0.794667      0.611220
C      -1.588070     -0.016776     -0.621429
H       2.611628     -0.143650     -1.988881
H       1.219446      0.825222     -1.552690
H       0.057977     -1.179538      1.015290
H       0.956873      0.266024      1.479054
H      -1.863908      0.262875      1.543777
H      -2.116372      1.793750      0.572828
H      -1.672746     -1.094838     -0.521242
H      -1.923040      0.384313     -1.570204
