14
Extracted from Q-Chem output
C       1.596246     -0.227340      0.353577
C       0.623617      0.533538     -0.515566
C      -1.179151      0.150101     -1.034174
C      -1.512210     -0.799265      0.116423
O      -1.106025      0.124526      1.147772
C      -0.685896      0.994456      0.103124
H       1.112960     -1.060220      0.861343
H       1.995172      0.433322      1.125420
H       2.425978     -0.614808     -0.237528
H       1.043532      1.334445     -1.118736
H       0.222589     -0.159719     -1.392162
H      -1.019970     -1.773402      0.175436
H      -2.597118     -0.940168      0.133794
H      -0.835213      2.055388      0.276397
