13
Extracted from Q-Chem output
C      -1.394610     -0.565416      0.009904
C      -1.339270      0.998069      0.141633
C       0.159984      0.800122      0.065736
N       1.380010      1.258494      0.051368
C       2.126778      0.102530     -0.080303
C       1.345878     -1.028732     -0.143745
N       0.073846     -0.530150     -0.043824
H      -1.854598     -0.943116     -0.902951
H      -1.786908     -1.094268      0.878198
H      -1.787575      1.539296     -0.690242
H      -1.719534      1.389389      1.084119
H       3.204149      0.145005     -0.123503
H       1.591852     -2.071224     -0.246390
