13
Extracted from Q-Chem output
C      -1.427600     -0.585018      0.064965
C      -1.814294      0.907079      0.107970
C       0.213466      0.892120      0.461474
N       1.434768      1.289170      0.270137
C       2.077245      0.126994     -0.094607
C       1.209012     -0.933772     -0.168945
N       0.008232     -0.415245      0.227271
H      -1.671127     -1.047676     -0.893771
H      -1.856274     -1.174907      0.875554
H      -1.647485      1.323347     -0.894920
H      -0.758631      1.452632      0.884275
H       3.142932      0.114288     -0.260782
H       1.353053     -1.967201     -0.434121
