17
Extracted from Q-Chem output
C      -0.257607     -0.852315      0.943597
C      -2.015864      0.247363     -0.153932
C      -0.616950      0.109571     -0.146655
C       0.449533      1.383730      0.091759
C       1.609097      0.561609      0.404074
C       1.362920     -0.713684     -0.107491
C       0.266326     -0.622887     -1.171289
H      -0.616116     -1.873209      0.814958
H      -0.204236     -0.520322      1.980011
H      -2.498638      0.616906      0.742505
H      -2.627908      0.115708     -1.038035
H       0.443784      1.856574     -0.888073
H       0.168485      2.114141      0.852880
H       2.253426      0.719669      1.260603
H       2.060194     -1.540561     -0.026209
H       0.527761     -0.069442     -2.077325
H      -0.141178     -1.597625     -1.439577
