14
Extracted from Q-Chem output
C       1.030458     -0.250804     -0.739354
C      -0.234941     -1.029468     -0.385066
C      -1.238036     -0.042042     -0.559870
C       0.066388     -0.848401      1.104321
N       0.113217      0.621402      1.278486
C       0.763467      1.055251      0.009821
C      -0.683471      1.167062      0.196671
H       1.469109     -0.212639     -1.736213
H       1.380247     -0.938459      0.488332
H      -0.344447     -2.035114     -0.768324
H      -2.180187     -0.085511     -1.090894
H      -0.410007     -1.379933      1.925712
H       1.472768      1.870592      0.033787
H      -1.253923      2.069881      0.362322
