10
Extracted from Q-Chem output
O       1.833146     -1.279009      0.630143
C       1.098155     -0.394382      0.129863
O       1.211929      0.936479      0.062334
C      -0.227078      0.816016      0.367132
C      -0.985296      0.313024     -0.774676
C      -0.271226     -0.745881      0.052803
H      -0.535746      1.296614      1.282780
H      -2.062365      0.322027     -0.658427
H      -0.632326      0.549695     -1.774068
H       0.666995     -1.801242      0.641826
