10
Extracted from Q-Chem output
N       1.900777     -0.472637      0.323651
C       1.099119      0.243752     -0.447281
C       0.076137     -0.791805     -0.348261
C      -1.193497     -0.410073      0.105305
C      -1.542186      0.894968      0.108184
O      -1.980453      1.942409      0.148253
O       0.953243      1.412700     -0.768516
H       2.357260      0.096902      1.037413
H       0.294609     -1.820018     -0.587088
H      -1.965008     -1.096199      0.428340
