15
Extracted from Q-Chem output
C       1.608680     -0.497289     -0.023912
C       0.416570      0.171994      0.624151
C      -0.305139      1.293217     -0.109522
O      -0.420693      0.827775     -1.470841
C      -1.679199      0.637581     -0.050081
C      -0.977806     -0.537523      0.624490
O      -1.133831     -1.833904      0.143870
H       2.467132      0.177175     -0.057534
H       1.387852     -0.814459     -1.042317
H       1.894495     -1.381917      0.546944
H       0.666070      0.485231      1.639886
H      -0.067160      2.351895     -0.029124
H      -1.099251      1.359724     -1.907393
H      -1.388345     -0.508129      1.644198
H      -1.204347     -1.788563     -0.811897
