15
Extracted from Q-Chem output
C      -1.217190      1.285443      0.405217
C      -0.646149     -0.112499      0.553806
C      -1.225184     -1.219402     -0.344458
O       0.049703     -1.316172     -1.045925
C       0.606471     -0.378548     -0.255874
C       1.914459      0.037985     -0.246748
C       3.001091      0.590673     -0.700952
H      -2.206018      1.345201      0.863092
H      -0.567814      2.013245      0.892203
H      -1.304324      1.563832     -0.646550
H      -0.568240     -0.396723      1.602627
H      -2.012941     -0.916706     -1.033299
H      -1.471618     -2.164540      0.138270
H       1.785176     -0.681821      0.722665
H       3.933901      0.321054     -0.204327
