11
Extracted from Q-Chem output
C       1.726796      0.207381      0.123735
C       0.396939      0.544755      0.560209
N      -0.578414      1.048478      1.005392
C      -1.501285      0.463479     -0.065593
C      -1.389176     -0.883546     -0.343356
O      -0.438412     -1.611605      0.010913
H       2.228748     -0.290470      0.955060
H       2.274929      1.092928     -0.196183
H       1.625958     -0.526236     -0.677461
H      -2.190792      1.188203     -0.462840
H      -2.238112     -1.307581     -0.903715
