15
Extracted from Q-Chem output
O      -1.567050      1.103757      0.616134
C      -1.561936     -0.177068     -0.009565
C      -0.231050     -0.684946     -0.406810
C       0.929325     -0.564191      1.417355
C       1.757954      0.178704      0.406578
O       2.916684      0.463960      0.490659
C       0.808396      0.367307     -0.753738
H      -2.472491      1.395331      0.733309
H      -2.093284     -0.910870      0.604259
H      -2.080641     -0.135301     -0.982872
H       0.313147     -1.328966      0.656920
H       0.270805      0.104251      1.968847
H       1.451549     -1.264577      2.069188
H       0.425782      1.392754     -0.718626
H       1.304702      0.197096     -1.709425
