19
smiles: [C:1]([C:2]([C:3]([H:12])([H:13])[H:14])([C@@:4]1([H:15])[C:5]([H:16])([H:17])[C:6]1=[O:7])[H:11])([H:8])([H:9])[H:10].[H:18][H:19]
C        1.77542700       0.97366400       0.46225700
C        0.94855300      -0.29989000       0.31257900
C        1.56817900      -1.26804600      -0.69026900
C       -0.47483100       0.04106500      -0.08431600
C       -1.64215800      -0.94477800       0.24545700
C       -1.48574200       0.34618200       0.92594100
O       -1.87917300       1.09068800       1.76932700
H        1.33063900       1.64660700       1.19706400
H        2.79389700       0.74220900       0.78052700
H        1.83730700       1.50837500      -0.48963400
H        0.90867300      -0.79572500       1.29002500
H        2.57893500      -1.55091300      -0.38924700
H        1.63077700      -0.80837900      -1.68050700
H        0.97491000      -2.18019700      -0.78015300
H       -0.57362300       0.55812500      -1.03685600
H       -2.42897100      -1.06759900      -0.48950600
H       -1.39222100      -1.84382000       0.80014500
H       -3.36294700       1.85548800      -1.50803700
H       -3.25078700       2.02068800      -0.79067500
