19
Extracted from Q-Chem output
C       1.595891      1.082356      0.316362
C       0.785813     -0.206413      0.217476
C       1.533289     -1.301735     -0.536120
C      -0.552094      0.073652     -0.431047
C      -1.772077     -0.817499     -0.155429
C      -1.651062      0.532178      0.456576
O      -1.683467      0.965027      1.687503
H       1.049455      1.832392      0.890223
H       2.553653      0.906547      0.810302
H       1.803871      1.490583     -0.677348
H       0.586942     -0.554802      1.236015
H       2.481628     -1.534199     -0.047271
H       1.754926     -0.989659     -1.560848
H       0.946303     -2.221278     -0.585933
H      -0.502542      0.477010     -1.438314
H      -2.457603     -1.004185     -0.971249
H      -1.660999     -1.631676      0.552039
H      -2.434880      1.345898     -0.345053
H      -2.384931      1.567042      0.573633
