17
Extracted from Q-Chem output
C      -1.492372     -0.963125      0.024272
C      -1.009452      0.001551     -1.015132
N      -0.971375      1.399554     -0.669364
C      -0.048479     -0.976351     -0.392060
C       1.041430     -0.646851      0.580290
C       2.038234      0.411111      0.316819
N       1.051767      0.568458      1.381381
H      -0.414913      1.925851     -1.329166
H      -1.700734     -0.541208      1.000133
H      -2.144393     -1.773481     -0.273132
H      -1.289598     -0.238353     -2.039188
H      -1.902024      1.794314     -0.667856
H       0.230636     -1.788356     -1.056184
H       1.380837     -1.520812      1.131077
H       3.065453      0.291902      0.642186
H       1.913471      0.996514     -0.588978
H       0.311410      1.182160      1.052595
