12
Extracted from Q-Chem output
C      -0.366395     -2.204923     -0.614727
O       0.443723     -1.037140     -0.836961
C      -0.125037      0.070750     -0.462123
N      -1.169072      0.551964      0.010015
O       0.933311      1.400612      1.903829
C       0.781576      2.014730      0.883872
C       0.037491      1.486468     -0.296885
H      -0.581889     -2.305786      0.449063
H      -1.296890     -2.127290     -1.177724
H       0.222736     -3.046382     -0.966525
H       1.199864      3.034250      0.762827
H      -0.079418      2.162747     -1.139584
