12
Extracted from Q-Chem output
C      -0.443088     -2.147234     -0.757950
O       0.220215     -0.903031     -0.995178
C      -0.026519      0.048485     -0.089265
N      -0.753307     -0.024211      0.931814
O      -0.071360      2.053604      1.807055
C       0.553962      2.226566      0.768767
C       0.451832      1.381541     -0.349872
H      -0.194090     -2.527189      0.235620
H      -1.523771     -2.027551     -0.841139
H      -0.079271     -2.828715     -1.521924
H       1.304235      3.033512      0.702080
H       0.561161      1.714222     -1.374931
