14
smiles: [C:1](=[C:2]1[C:3]([H:11])=[O+:4][C:5]([H:12])=[C:6]1[N-:7][H:13])([H:8])[H:10].[H:9][H:14]
C       -1.46310400      -0.07884600       0.94167800
C       -0.39523300      -0.54021900       0.27796500
C       -0.26784900      -1.74685900      -0.47189200
O        0.94331300      -1.81493500      -0.96291600
C        1.70851400      -0.77936100      -0.64409100
C        0.95882700       0.12747500       0.16279700
N        1.38070900       1.23559000       0.65068100
H       -2.39621500      -0.62722200       0.96728900
H       -1.23175000       2.67794800      -0.95193100
H       -1.42922400       0.86325700       1.47554600
H       -0.94399800      -2.55358800      -0.69319300
H        2.71604000      -0.77115400      -1.01585100
H        0.65359100       1.69908200       1.19052800
H       -0.50143500       2.57411100      -0.85017000
