14
Extracted from Q-Chem output
C      -1.498416      0.216369      0.638940
C      -0.377738     -0.478389      0.241672
C      -0.241667     -1.720914     -0.364474
O       0.985770     -1.850100     -0.843661
C       1.692245     -0.727953     -0.656793
C       0.932467      0.192580      0.053681
N       1.187355      1.474232      0.264610
H      -2.491750     -0.151406      0.409594
H      -1.097220      1.712040     -0.357927
H      -1.439363      0.966659      1.415355
H      -0.885104     -2.581684     -0.429583
H       2.713779     -0.730301     -0.991062
H       0.697302      1.800907      1.093570
H      -0.318372      1.989360     -0.397644
