14
Extracted from Q-Chem output
C      -1.677695     -0.754773     -0.321395
C      -0.139764      2.136631     -0.609469
C       0.956601      1.597353     -0.205085
C       1.568364      0.233538      0.005314
O       0.738857     -0.825261     -0.343993
C      -0.413120     -1.003148      0.473412
H      -1.713472     -1.412709     -1.190409
H      -1.732956      0.279011     -0.672123
H      -2.556917     -0.946243      0.297033
H       1.548717      2.496463      0.042862
H       1.890723      0.162359      1.053606
H       2.459493      0.154394     -0.619790
H      -0.365646     -0.337949      1.342756
H      -0.388591     -2.031818      0.844184
