13
Extracted from Q-Chem output
O       1.887042      0.732961      0.309780
C       0.803444      0.262855     -0.469141
C       0.401874     -1.176550     -0.104068
C      -0.735801     -1.092877      0.892689
N      -1.149890      0.142008      0.783887
C      -0.486339      1.031675     -0.185210
H       1.744132      0.479078      1.224897
H       1.119492      0.376625     -1.505316
H       1.245009     -1.762687      0.264054
H       0.006794     -1.718502     -0.971209
H      -1.108077      1.141432     -1.077835
H      -1.941574      0.472130      1.313627
H      -0.290638      2.018130      0.236083
