17
Extracted from Q-Chem output
O       2.173968     -0.918176      2.005016
C       2.428716     -0.898293      0.832992
C       1.611310     -0.181620     -0.209910
C       0.450834      0.594254      0.354960
C      -1.115555      0.829640     -1.151195
C      -1.684133     -0.551317     -1.099023
C      -2.343168      0.565806     -0.341154
H       3.314754     -1.437632      0.438582
H       2.290611      0.456876     -0.784411
H       1.265566     -0.942631     -0.920648
H       0.743427      1.498261      0.890797
H      -0.205233     -0.000142      0.977948
H      -0.044911      1.182672     -0.663214
H      -2.110689     -0.906193     -2.030601
H      -1.222563     -1.337100     -0.512395
H      -3.247009      1.024688     -0.726268
H      -2.310919      0.515361      0.739838
