19
Extracted from Q-Chem output
C       2.511104     -0.486124     -0.402092
O       1.300383     -1.128511     -0.038388
C       0.540564     -0.647359      0.972900
C      -0.052890      1.242785      0.157941
C      -1.503158      1.324596     -0.150786
C      -1.218345     -0.015940      0.480544
C      -1.604379     -1.194257     -0.377498
H       2.873224      0.153473      0.408835
H       2.382013      0.115422     -1.307421
H       3.249741     -1.261419     -0.606758
H       1.111881      0.042129      1.609001
H       0.304948      1.868561      0.962412
H       0.615397      1.160014     -0.685595
H      -1.775120      1.309819     -1.200878
H      -2.083921      2.029592      0.432859
H      -1.573064     -0.062495      1.500745
H      -2.665817     -1.127308     -0.632586
H      -1.033121     -1.197538     -1.307816
H      -1.393587     -2.126358      0.144119
