14
smiles: [H:7][H:8].[O:1]=[C:2]([C:3]1([H:10])[C:4]([H:11])([H:12])[O:5][C:6]1([H:13])[H:14])[H:9]
O        2.21886900       0.18925100      -0.39182000
C        1.10383200       0.05361100      -0.81088600
C       -0.12991700       0.02077500       0.03877000
C       -1.27366100       0.91456100      -0.47846100
O       -2.05685900      -0.21723000      -0.87134200
C       -1.10179200      -1.12325400      -0.30953300
H        2.60781000       0.24148400       2.24892700
H        2.59578100       0.24050800       2.99348100
H        0.91668500      -0.05860800      -1.90235900
H        0.13555300       0.13101700       1.08757800
H       -1.76521800       1.50549400       0.29853000
H       -1.03387400       1.56232400      -1.32693300
H       -1.49875900      -1.65278100       0.56022700
H       -0.74690500      -1.85133600      -1.04510800
