14
Extracted from Q-Chem output
O       2.047017      1.161396     -0.230356
C       1.253857      0.110882     -0.152564
C      -0.142579      0.280355      0.384119
C      -1.087058      0.758947     -0.733221
O      -1.758610     -0.508308     -0.760978
C      -1.027660     -0.969887      0.381328
H       2.275816      0.083563      0.637030
H       1.807388     -0.741634      0.857161
H       1.310748     -0.651569     -0.951946
H      -0.127149      0.885950      1.286922
H      -1.755775      1.571559     -0.439775
H      -0.618378      1.003956     -1.689858
H      -1.668876     -1.077870      1.260330
H      -0.520107     -1.921304      0.187933
