12
Extracted from Q-Chem output
N      -1.384242     -0.103770     -0.751431
C      -0.877836      0.026056      0.479459
C      -0.050402      1.215456      0.718238
N       1.074868      1.072921      0.115876
C       1.283232     -0.131599     -0.542608
N       0.992587     -1.280202      0.184557
C      -0.151697     -1.211711      0.772568
H      -1.709444      0.786265     -1.126145
H      -0.188909     -0.200615     -1.236292
H      -0.318233      2.127757      1.237003
H       2.131460     -0.175476     -1.212485
H      -0.596545     -2.077892      1.247384
