12
Extracted from Q-Chem output
O       0.747647      1.109401      2.010939
C       0.479541      0.759676      0.922976
C       1.183952     -0.340027      0.036971
C       2.177858     -0.959316     -0.316934
C      -0.734392      0.891346     -0.070785
C      -0.511251     -0.503266     -0.613789
N      -2.068469      0.895307      0.177329
H       3.023401     -1.509987     -0.662435
H      -0.432359      1.641677     -0.813292
H      -0.890047     -1.307205      0.011683
H      -0.630312     -0.679645     -1.679087
H      -2.262276      0.249181      0.943006
