16
Extracted from Q-Chem output
C       1.982346      0.025219     -1.196629
C      -0.494858     -0.094790      0.492262
C       0.197087     -0.793562      1.606364
C      -1.944632      0.296917      0.297260
N      -1.611473      0.609174     -1.129471
C      -0.282680      0.294384     -0.776607
O       0.703517      0.404841     -1.665647
H       2.683225      0.225645     -2.003576
H       2.004874     -1.040020     -0.950529
H       2.261348      0.609316     -0.314917
H       0.135401     -0.221943      2.536537
H       1.253392     -0.956324      1.392788
H      -0.251854     -1.772978      1.799755
H      -2.685930     -0.501450      0.378462
H      -2.280555      1.174267      0.856093
H      -1.766277      1.573726     -1.401614
