16
Extracted from Q-Chem output
C       1.977850      0.337957     -0.631623
C      -0.290397     -0.014715      0.368536
C       0.208504     -1.029130      1.339454
C      -1.688898      0.613620      0.341206
N      -1.695276      0.336834     -1.119006
C      -0.381316     -0.082600     -1.033902
O       0.454284     -0.303903     -1.937568
H       2.528949     -0.323412     -1.280647
H       2.119205      0.185388      0.428218
H       1.871585      1.360946     -0.957525
H       0.850569     -0.593184      2.116440
H       0.800234     -1.793836      0.829046
H      -0.614251     -1.534283      1.855320
H      -2.473929      0.066958      0.870381
H      -1.749380      1.677759      0.581523
H      -1.988265      1.006424     -1.816301
