12
Extracted from Q-Chem output
O       2.467124      0.022930      0.211658
C       1.393007      0.037339      0.964246
C       0.304113      0.628304      0.131357
C      -0.410507     -0.462143     -0.703480
C      -1.632466     -0.085129      0.140148
O      -0.893738      0.916012      0.852297
H       3.178214     -0.396744      0.706210
H       0.656381      1.499407     -0.436185
H      -0.034906     -1.473731     -0.554770
H      -0.472038     -0.246624     -1.766975
H      -1.996704     -0.869083      0.808892
H      -2.474881      0.345469     -0.407766
