12
Extracted from Q-Chem output
O       1.246910      2.142646     -0.247338
C       1.544186      0.887143     -0.098202
C       0.491057      0.033126      0.525244
C      -0.941190      0.140294     -0.025991
C      -0.785035     -1.365045     -0.270551
O       0.576132     -1.350667      0.194702
H       2.315464      1.767064     -0.536263
H       0.583134      0.207821      1.608904
H      -1.026801      0.755006     -0.920145
H      -1.701254      0.434550      0.692536
H      -0.849649     -1.695856     -1.309574
H      -1.414274     -2.003274      0.354803
