19
Extracted from Q-Chem output
C       1.507423     -0.094048     -1.287015
C       1.424686     -0.061108      0.219977
C       0.675382      0.948139      1.028547
C      -0.677947      1.277315      0.400921
C      -1.101098     -0.210945      0.568198
C      -1.696225     -0.993684     -0.588143
C       0.298950     -0.531477      1.092530
H       2.375970      0.476012     -1.624470
H       0.631197      0.338869     -1.767486
H       1.616713     -1.117085     -1.653957
H       2.375637     -0.303293      0.687751
H      -1.063857     -0.974388     -1.475566
H       1.162718      1.547208      1.786385
H      -0.647963      1.665749     -0.620105
H      -1.282067      1.953907      1.003733
H      -1.792491     -0.265733      1.412721
H      -1.839862     -2.040349     -0.308917
H      -2.672674     -0.589346     -0.866786
H       0.492444     -1.232911      1.894966
