19
Extracted from Q-Chem output
C       2.065584     -0.490943     -0.824919
C       1.053349      0.587753     -0.610604
C       0.358188      0.591263      0.722419
C      -1.044547      1.238627      0.753863
C      -1.616137     -0.206798      0.696527
C      -1.387111     -0.698598     -0.716276
C      -0.264371     -0.676478      1.111100
H       2.495706     -0.436030     -1.826088
H       1.593690     -1.476175     -0.691166
H       2.899800     -0.455833     -0.111521
H       1.357175      1.574721     -0.968791
H      -0.272806     -0.248455     -1.054863
H       1.076026      0.946220      1.478235
H      -1.307817      1.897908     -0.075597
H      -1.250405      1.722734      1.707497
H      -2.548891     -0.459416      1.201363
H      -1.522988     -1.770913     -0.816138
H      -1.944206     -0.160235     -1.487851
H       0.129707     -1.628371      1.440928
