13
Extracted from Q-Chem output
C       0.145062     -1.236408      0.338178
C       1.118234     -0.156267     -0.216102
C       0.396034      1.169359     -0.125966
C      -0.886598      1.080585      0.362294
N      -1.708537      0.054673     -0.447395
C      -1.111650     -0.439500      0.646994
H       0.552120     -1.720411      1.222894
H      -0.081609     -2.013770     -0.397739
H       1.557973     -0.355007     -1.197850
H       0.952250      2.099371     -0.134303
H      -1.470062      1.879239      0.789450
H      -1.302458     -0.214562     -1.358854
H       1.955915     -0.116305      0.485623
