15
Extracted from Q-Chem output
O       2.251370     -1.902578     -1.652712
C       1.830328     -1.408353     -0.693750
C      -1.694913     -0.344021      0.420840
C      -0.704788      0.788720      0.387917
C       0.085536      1.077315     -0.851759
C       0.783201      0.537360      0.366127
C       1.334704     -0.846817      0.380928
H      -1.329778     -1.203899     -0.142779
H      -1.882856     -0.673064      1.445551
H      -2.648570     -0.036535     -0.013063
H      -0.998502      1.659239      0.964861
H      -0.050729      0.404346     -1.690624
H       0.272792      2.105248     -1.131735
H       1.378507      1.256433      0.918766
H       1.376089     -1.430546      1.292116
