15
Extracted from Q-Chem output
O       0.829550     -2.580959     -0.827999
C       0.839194     -1.572672     -0.217599
C      -1.158698     -0.784956      0.120500
C      -0.862282      0.644138      0.288056
C       0.045847      1.292562     -0.707514
C       1.074460      0.818223      0.238699
C       1.527032     -0.501620      0.303033
H      -1.320471     -1.199850     -0.868826
H      -1.473457     -1.375379      0.969952
H      -2.061022      0.132431     -0.043847
H      -1.129732      1.158521      1.198653
H       0.030133      0.829205     -1.692555
H      -0.049218      2.371324     -0.785227
H       1.487216      1.534387      0.937521
H       2.223842     -0.782505      1.087836
