15
smiles: [C:1]([C:2]([N:6]([H:14])[H:15])([H:10])[H:11])([H:7])([H:8])[H:9].[C:3](=[C:4]=[O:5])([H:12])[H:13]
C        1.45129000      -0.29604700      -1.00316700
C        0.01761100      -0.15788100      -1.48317400
C       -0.51793500       0.48293800       2.52581400
C       -0.80736700       1.35478300       1.59541000
O       -1.06218800       2.12531200       0.77324000
N       -0.90138900      -0.76831200      -0.52862400
H        2.14366000       0.19444900      -1.68979200
H        1.74086400      -1.34834900      -0.93496400
H        1.56520500       0.14854600      -0.01328000
H       -0.23824300       0.90247300      -1.55921100
H       -0.06732400      -0.57561600      -2.49749400
H       -0.42734300      -0.55942600       2.26382600
H       -0.37366600       0.82104100       3.53984400
H       -1.86058700      -0.66236600      -0.82967300
H       -0.72217900      -1.76138800      -0.45003900
