15
Extracted from Q-Chem output
C       1.659050     -0.453752     -0.697340
C       0.444556      0.339472     -0.976939
C      -0.187017      0.454031      1.541763
C      -1.341651      0.521818      0.765992
O      -2.183250      1.400434      0.653260
N      -1.426596     -0.574377     -0.220550
H       2.273737     -0.441257     -1.607919
H       1.423608     -1.502519     -0.508659
H       2.222605     -0.058702      0.142959
H       0.425815      1.383823     -0.710117
H      -0.069287      0.099720     -1.894957
H       0.331391     -0.486282      1.668467
H      -0.003905      1.236917      2.264249
H      -2.284458     -0.486866     -0.750394
H      -1.330404     -1.500651      0.173805
