11
Extracted from Q-Chem output
C      -1.174144     -0.403613      0.067457
C       0.290648      0.343477      0.969418
C       1.362793     -0.107325     -0.027997
O       0.699093      0.477618     -1.170539
C      -0.365544      0.818190     -0.294843
H      -2.156220     -0.182227      0.469319
H      -1.107438     -1.208817     -0.657438
H      -0.618069     -0.762803      1.069389
H       1.579695     -1.171647     -0.144236
H       2.286540      0.433820      0.195315
H      -0.876267      1.755750     -0.484976
