13
Extracted from Q-Chem output
C       1.842575      0.510792     -0.309453
C       0.637073      0.236466      0.582497
C      -0.367123     -0.660427     -0.092977
O      -2.903509     -0.512163      0.597127
C      -1.772853     -0.429728     -0.076116
N      -1.311418     -0.036518     -1.163438
H       2.565945      1.156344      0.190924
H       2.352183     -0.417814     -0.577553
H       1.530302      0.998270     -1.234539
H       0.150021      1.175530      0.858178
H       0.959868     -0.236126      1.515917
H      -0.003317     -1.656138     -0.346923
H      -3.610590     -0.138897      0.055467
