17
Extracted from Q-Chem output
C      -2.113967     -0.161736      0.096276
C      -1.120991      0.821679     -0.481430
C       0.047647      1.263148      0.402383
C       0.755086      0.597384     -0.704229
C       1.109806     -0.839004     -0.390922
C       2.452461     -0.883409      0.302055
O       2.969799      0.039430      0.865309
H      -2.680824      0.310379      0.900510
H      -1.622047     -1.038376      0.519640
H      -2.818911     -0.503477     -0.662728
H      -1.572218      1.677755     -0.977778
H       0.173380      2.337673      0.489756
H       0.040397      0.774029      1.378921
H      -0.563798      0.385160     -1.416295
H       1.185743     -1.458177     -1.289046
H       0.441336     -1.373897      0.307266
H       2.943102     -1.878962      0.281832
