11
Extracted from Q-Chem output
O       2.059241     -0.965309      1.160642
C       1.178889     -0.617938      0.426948
C       0.981558      0.790842     -0.063409
C      -0.430870      1.297233     -0.054229
N      -1.290092      0.288676     -0.098187
C      -0.952771     -1.075205     -0.221414
N       0.200482     -1.546386     -0.018335
H       1.262384      0.841197     -1.127410
H       1.654072      1.474461      0.452106
H      -2.274627      0.510100     -0.138586
H      -1.768527     -1.723395     -0.539615
