17
Extracted from Q-Chem output
O       0.493699     -0.766171      2.248763
C       1.315490     -0.640126      1.261278
C       0.820254     -0.464129     -0.118451
C       0.276149      0.945667     -0.394539
C      -0.397069      1.131560     -1.721146
C      -0.563716      0.214747     -2.662603
C      -0.810617     -0.760258      2.248431
H       2.351355     -0.698735      1.556074
H       1.628112     -0.688423     -0.817649
H       0.024579     -1.204445     -0.302100
H       1.102325      1.659669     -0.318300
H      -0.425225      1.238270      0.394594
H      -0.774078      2.135350     -1.904366
H      -1.063186      0.456174     -3.592670
H      -0.213379     -0.804915     -2.551077
H      -1.360254     -0.634803      1.329013
H      -1.257249     -0.945583      3.209083
