17
Extracted from Q-Chem output
O       0.325699     -0.441880      1.697464
C       1.176679     -0.860676      0.959324
C       1.703750     -0.129502     -0.243147
C       0.942833      1.134601     -0.601221
C      -0.407172      0.924990     -1.223464
C      -0.980893     -0.233793     -1.510572
C      -2.426053     -0.880085      1.116621
H       1.653015     -1.842019      1.160913
H       2.750841      0.101548     -0.010883
H       1.749958     -0.835799     -1.078742
H       1.549462      1.737344     -1.284260
H       0.818321      1.741788      0.300587
H      -0.947011      1.840488     -1.452498
H      -1.965531     -0.276189     -1.956849
H      -0.515551     -1.191252     -1.306923
H      -2.675092      0.187403      0.953157
H      -2.058379     -0.884205      2.159518
