15
Extracted from Q-Chem output
O       2.210294      0.715114     -0.260173
C       0.921428      0.271982     -0.076672
C       0.587921     -1.185685      0.210273
C      -0.833324     -0.809820     -0.268758
C      -1.271224      0.191998      0.799136
C      -0.143587      1.194802      0.431970
C      -0.189074      0.323728     -1.113052
H       2.256485      1.597401      0.118341
H       0.700583     -1.557012      1.231624
H       1.099726     -1.845027     -0.490619
H      -1.510878     -1.563458     -0.663162
H      -2.259273      0.622524      0.632900
H      -1.203791     -0.161577      1.830122
H      -0.655936      1.465108     -0.777707
H       0.004253      0.487289     -2.166600
