15
Extracted from Q-Chem output
C      -1.060037      1.539574     -0.813986
C      -0.427116      0.294900     -0.268744
C       1.067096      0.132688     -0.581750
C       1.897652      0.317800      0.603775
N       2.536775      0.466333      1.544560
C      -0.542079     -1.709704      0.981002
N      -1.116196     -0.519745      0.399787
H      -0.557154      2.425854     -0.416933
H      -0.967063      1.575622     -1.903028
H      -2.111666      1.569425     -0.539385
H       1.372233      0.864245     -1.330408
H       1.267885     -0.858403     -0.993821
H      -0.352966     -1.525385      2.041336
H       0.396004     -2.050236      0.528714
H      -1.271650     -2.516837      0.914904
