16
Extracted from Q-Chem output
O       2.282464     -1.263693     -0.929179
C       1.785198      0.224927      0.099472
C       0.501099      0.321531     -0.476010
C      -0.702164     -0.189602      0.248607
C      -2.057536     -0.079419     -0.378248
C      -1.723114      0.753114      0.826113
H       2.976273     -1.109124     -1.582025
H       2.573556      0.908258     -0.192680
H       1.932924     -0.262134      1.055787
H       1.175706     -0.705876     -1.161307
H       0.334984      1.151857     -1.158157
H      -0.526537     -1.096291      0.819152
H      -2.122328      0.422548     -1.335980
H      -2.753472     -0.899239     -0.257593
H      -1.559892      1.813187      0.676583
H      -2.189549      0.498451      1.769317
