11
Extracted from Q-Chem output
O      -1.685264      0.698371     -1.083770
C      -1.015719      0.707953      0.021189
C       0.184893     -0.195301      0.071948
C       1.198437     -0.838616      0.875193
O       0.370931     -1.448742     -0.180426
H      -0.219938      0.681119     -1.871812
H      -0.689135      1.678814      0.450041
H      -1.495638      0.157213      0.886871
H       0.572750      0.578796     -1.741026
H       0.966826     -1.190182      1.873370
H       2.240358     -0.714321      0.608380
