12
Extracted from Q-Chem output
O       2.135154     -1.587141      0.297263
C       1.342062     -0.715558      0.517617
C      -0.019949      1.091895     -0.661054
C       0.152489     -0.405077     -0.338963
C      -1.157743     -0.207228      0.447735
O      -1.178578      1.197119      0.172347
H       1.451715     -0.059943      1.410436
H       0.786145      1.752140     -0.327032
H       0.111622     -1.088475     -1.183871
H      -0.245294      1.301648     -1.709707
H      -1.108361     -0.412783      1.521397
H      -2.020899     -0.723625      0.020543
