10
Extracted from Q-Chem output
O       2.289260      1.397759     -0.643139
C       1.159471      1.217314     -0.472385
C      -0.124338      1.051114     -0.260816
C      -0.723821     -0.313566     -0.037259
N       0.307119     -1.249607      0.386240
H       0.607376     -1.051105      1.331466
H      -0.734051      1.944278     -0.283317
H      -1.553947     -0.211682      0.675093
H      -1.155343     -0.694335     -0.967843
H      -0.028111     -2.201794      0.358676
