10
Extracted from Q-Chem output
O       2.134269      0.620368     -0.648661
C       1.036957      0.448390     -0.245105
C      -0.217259      1.021607      0.138954
C      -0.906863     -0.320124     -0.101736
N       0.400184     -0.905637      0.303104
H       0.316862      0.026784      1.170086
H      -0.567709      2.028039     -0.034928
H      -1.731041     -0.596232      0.553777
H      -1.142579     -0.547579     -1.143531
H       0.703282     -1.845738      0.070714
