15
Extracted from Q-Chem output
C       2.572715     -0.039875      0.470478
O       1.187251      0.332282      0.517142
C       0.364312     -0.487224     -0.123927
O       0.655681     -1.452544     -0.746183
C      -1.239590     -0.087377      0.314487
C      -1.210462      0.663221     -0.919964
O      -2.030296     -1.094690      0.346774
H       2.712158     -1.011923      0.941840
H       3.101358      0.733283      1.019773
H       2.915273     -0.085327     -0.562801
H      -1.081545      0.517088      1.219728
H      -0.815133      1.674647     -0.965728
H      -3.043532      0.475824     -0.906073
H      -1.253385      0.095357     -1.841230
H      -3.050495     -0.249558     -0.467674
