12
Extracted from Q-Chem output
O       0.196755     -1.843881     -0.563085
C       0.039900     -0.788310      0.373297
C      -1.159898      0.071370      0.084662
C      -0.727701      1.245753     -0.363553
O       0.613665      1.414940     -0.354627
C       1.156856      0.265786      0.318418
H      -0.046237     -1.506763     -1.429299
H      -2.186130     -0.254583      0.141567
H       0.014094     -1.279101      1.346547
H      -1.287240      2.089502     -0.743600
H       1.452828      0.581454      1.321563
H       2.028694     -0.085899     -0.231489
