12
Extracted from Q-Chem output
O       0.011978     -1.308739     -1.163068
C       0.037363     -0.433274     -0.107252
C      -1.443840      0.308477      0.738957
C      -0.571827      0.950694     -0.234741
O       0.595173      1.595334      0.289988
C       1.269987      0.338510      0.380633
H       0.116617     -2.207353     -0.843703
H      -2.215049     -0.200603      0.138451
H      -0.532586     -0.797387      0.889210
H      -0.917280      1.321893     -1.193982
H       1.620204      0.120617      1.391447
H       2.087106      0.258482     -0.341246
