16
smiles: [C:1](/[N+:2](=[C:3](/[C+:4]([O-:5])[O-:6])[H:13])[H:11])([H:8])([H:9])[H:10].[C:7]([H:12])([H:14])([H:15])[H:16]
C       -1.83329700      -0.51573900       0.51285400
N       -0.79493600       0.32890400      -0.03854100
C       -0.86932700       1.51480600      -0.48285200
C        0.49552700       2.08301100      -1.00117300
O        0.42988000       3.22340000      -1.43405600
O        1.39508400       1.23690900      -0.86509600
C        1.79395700      -1.77103600       0.99276800
H       -2.78570800       0.00941800       0.49267500
H       -1.57845700      -0.77579700       1.53974200
H       -1.90327600      -1.42941500      -0.07620100
H        0.20034600       0.02488200      -0.13592200
H        1.30536300      -1.41523200       1.89852900
H       -1.80887800       2.06014000      -0.49130400
H        2.12611700      -0.91899600       0.40152400
H        1.09226500      -2.36558400       0.40979100
H        2.65311500      -2.38421500       1.26064300
