12
Extracted from Q-Chem output
N       0.186865      1.500976      0.900662
C       0.002456      0.306003      0.162419
C      -1.160556      0.161228     -0.924169
C      -1.289635     -0.537399      0.326917
C       1.021343     -0.522844     -0.172137
N       1.946880     -1.197897     -0.544587
H      -0.025925      1.370677      1.877982
H       1.078348      1.949879      0.757044
H      -0.938493     -0.305770     -1.885390
H      -1.580137      1.160747     -0.998282
H       2.112254     -2.115351     -0.143225
H      -1.131209     -1.616950      0.288964
