10
Extracted from Q-Chem output
O       3.109834     -0.783684      1.035707
C       2.123894     -1.028576      0.426993
N       0.872755     -0.318343      0.706071
C      -1.893833      1.784347     -1.354436
N      -1.589916      0.908954     -0.551336
C      -1.280898     -0.099807      0.130702
N       0.001950     -0.728254     -0.059408
H       2.027761     -1.777743     -0.380418
H      -1.712135      2.806531     -1.005986
H      -1.974900     -0.588658      0.801354
