17
Extracted from Q-Chem output
C      -1.106693      0.605035      1.199169
C      -1.680473      0.430703     -0.135360
C      -1.097204     -0.948681     -0.354877
C       0.308834     -1.058204     -0.216005
C       1.293679     -0.070478     -0.889241
C       1.715812      0.436208      0.482097
O       0.707190     -0.328999      1.169646
H      -0.504359      1.458424      1.491798
H      -1.555983      0.052203      2.011776
H      -2.768866      0.371982     -0.108745
H      -1.381273      1.196183     -0.852826
H      -1.707875     -1.798427     -0.074747
H       0.669365     -2.085000     -0.182687
H       2.072766     -0.548597     -1.480526
H       0.785718      0.667960     -1.508216
H       2.716473      0.131492      0.795045
H       1.600290      1.507672      0.674060
