12
smiles: [C:1]([C:2]([C:3]([H:9])([H:10])[H:11])=[O:4])([H:5])([H:6])[H:7].[H:8][H:12]
C       -0.78052800      -0.71500200       0.37800700
C        0.37897400       0.19243500       0.04187100
C        1.70349300      -0.13921900       0.68685400
O        0.25358400       1.13117500      -0.70349200
H       -1.70083700      -0.31465000      -0.04098100
H       -0.59681700      -1.71005900      -0.03552700
H       -0.87992700      -0.83136600       1.45939200
H       -2.62221100       1.49622200      -2.40661200
H        1.97351900      -1.17955400       0.49177100
H        2.47866100       0.52425100       0.31064100
H        1.62189900      -0.02747700       1.77101700
H       -1.96625500       1.49376500      -2.05429900
