12
Extracted from Q-Chem output
C      -0.851499     -1.486958     -0.204268
C       0.220117      0.737650      0.342997
C      -0.399123      2.021003      0.141064
O      -0.133271      1.435954      1.443380
C       1.269677     -0.074434      0.034533
C       1.575489     -1.221150     -0.321968
H      -0.405825     -1.445211      0.763982
H      -0.531036     -0.958465     -1.073812
H      -1.742030     -2.106588     -0.306991
H      -1.447393      2.069440     -0.130801
H       0.211204      2.888166     -0.088543
H       2.260422     -1.980529     -0.633985
