15
smiles: [C:1]([C:2](=[O:3])[H:11])([H:8])([H:9])[H:10].[C:4](=[N:5][H:12])=[C:6]([N:7]([H:14])[H:15])[H:13]
C        2.25143200      -0.58970700       0.34146900
C        1.91902900      -1.10812400      -1.02491000
O        0.81323900      -1.38976400      -1.39601400
C       -1.40410000       0.09221500       0.74668000
N       -1.09893500      -0.37048400       1.84114200
C       -1.57495300       0.70442700      -0.39835200
N       -2.27158300       1.92927600      -0.57422800
H        1.35307700      -0.50463900       0.94973500
H        2.74038400       0.38398900       0.25295300
H        2.96792100      -1.26186900       0.82090100
H        2.78403500      -1.22663200      -1.71167800
H       -1.71724000      -1.11273900       2.16428000
H       -1.10191600       0.27931700      -1.27493100
H       -3.10116300       1.81870100      -1.14072600
H       -2.52812300       2.35321000       0.30467700
