14
Extracted from Q-Chem output
O      -1.707039     -0.792745      0.709193
C      -0.971156      0.130103     -0.080265
C      -0.114714      1.036783      0.796337
O       0.745001      0.295422      1.640226
C       2.210382     -0.115604     -1.541539
N       1.055371     -0.427551     -1.313266
C      -0.187219     -0.601895     -1.137550
H      -1.095863     -1.479534      0.988927
H      -1.730112      0.748741     -0.570991
H       0.514328      1.675805      0.173246
H      -0.777520      1.680338      1.382414
H       2.973909     -0.682401     -1.002548
H      -0.703001     -1.313116     -1.773506
H       0.250612      0.041349      2.420524
