13
Extracted from Q-Chem output
C      -1.690024      0.162057     -0.194227
C      -0.670745     -0.753953      0.072326
C       0.433657     -0.928837     -0.813724
C       1.315105     -0.054861     -0.237549
O       2.434516      0.435804     -0.764995
N       0.828698      0.488077      0.930199
N      -0.109875     -0.525405      1.334127
H      -0.399542      1.048614      0.229089
H      -2.410717      0.411478      0.579416
H      -2.044627      0.291844     -1.210847
H       0.418422     -1.275641     -1.832575
H       2.850957      0.986710     -0.093445
H      -0.762536     -0.093554      1.975442
