11
Extracted from Q-Chem output
C      -1.746309      0.714556     -0.361301
C      -0.805851      0.293111      0.730045
O      -1.130311     -0.162710      1.786435
C       2.339918     -1.047654     -0.298346
C       1.394435     -0.236548      0.083994
N       0.556572      0.567930      0.432062
H      -2.771894      0.534650     -0.049579
H      -1.527776      0.153182     -1.271919
H      -1.597536      1.771711     -0.584746
H       2.535077     -1.197726     -1.350222
H       2.923738     -1.577658      0.440067
