13
Extracted from Q-Chem output
O       1.830580      2.071960     -1.207078
C       1.581895      1.181942     -0.443495
C       1.029177     -0.129902     -0.893913
O       1.082336     -1.192011      0.043210
C      -2.081785     -0.658529      1.483699
C      -0.963953     -0.019958      0.826874
C      -0.190918     -0.688227     -0.284168
H       1.753860      1.277737      0.646962
H       1.256945     -0.386281     -1.925241
H      -2.454379     -1.441108      0.790882
H      -1.716461      0.699542      0.386893
H      -0.343245      0.600397      1.475801
H      -0.787298     -1.347748     -0.914355
