14
Extracted from Q-Chem output
N       1.619829     -1.898068     -1.064845
C       0.854015     -0.915164     -0.876807
O       1.345043      0.340718     -0.761079
C       0.493584      1.471252     -0.594175
C      -0.802283      1.166191      0.082170
C      -0.635668     -1.119622     -0.767785
C      -1.326261     -0.044530      0.011414
H       2.587373     -1.588893     -1.128705
H       0.316746      1.920615     -1.579377
H       1.078058      2.184980     -0.012177
H      -1.291759      1.974662      0.612220
H      -1.046112     -1.158787     -1.783804
H      -0.793142     -2.108332     -0.340590
H      -2.268755     -0.278188      0.492611
