14
Extracted from Q-Chem output
N       1.311514     -1.966141     -0.618059
C       0.740381     -0.836631     -0.612224
O       1.344908      0.375354     -0.934763
C       0.397188      1.438701     -0.781160
C      -0.850792      0.743511     -0.227244
C      -0.776273     -0.584823     -1.012456
C      -0.339112     -0.179412      0.772753
H       2.319945     -1.860001     -0.668620
H       0.222785      1.906862     -1.754274
H       0.799601      2.175672     -0.084561
H      -1.796337      1.269091     -0.173846
H      -0.664980     -0.383295     -2.076045
H      -1.511180     -1.356552     -0.827999
H      -1.101597     -0.790997      1.265960
