13
Extracted from Q-Chem output
C      -1.770087     -0.463984      0.140119
N      -1.743898      0.994930      0.176901
C      -0.901230      0.271208     -0.801582
C       0.559770      0.239160     -0.700502
C       2.345013     -0.366615      0.707693
O       1.100321     -0.285424      0.347518
H      -1.286993     -1.010893      0.941924
H      -2.696181     -0.899239     -0.216851
H      -1.161168      1.306396      0.946505
H      -1.250687      0.400410     -1.819984
H       1.211526      0.699262     -1.434088
H       2.520114     -0.893349      1.628475
H       3.111217      0.052415      0.070346
