13
Extracted from Q-Chem output
C      -1.812754     -0.337054      0.105831
N      -1.422148      1.057437      0.202421
C      -0.792568      0.202175     -0.830562
C       0.596287     -0.218262     -0.716969
C       2.149229     -0.137744      0.731512
O       1.002779     -0.771236      0.423843
H      -1.481149     -1.026057      0.873466
H      -2.813849     -0.511567     -0.269999
H      -0.777970      1.180146      0.976908
H      -1.099556      0.458504     -1.837388
H       1.345182     -0.052814     -1.476678
H       2.951257     -0.747895      1.117729
H       2.167980      0.936652      0.673657
