11
Extracted from Q-Chem output
O       1.466652     -0.122027      1.764982
C       0.693317     -0.245835      0.784099
C       1.411439     -1.355339      0.411795
C      -0.462409      0.884976     -1.124188
N      -1.453208      0.058561     -0.478270
C      -0.384735      0.627966      0.342205
H       0.290784      0.418330     -1.748713
H       1.090100     -2.289882      0.874633
H      -0.806989      1.859890     -1.445335
H      -1.282423     -0.925457     -0.654796
H      -0.676314      1.394832      1.048694
