9
Extracted from Q-Chem output
O      -1.646318      1.743734     -0.063125
C      -0.961486      0.756499      0.029559
N       0.463225      0.757316      0.023900
C       0.912289     -0.494886      0.053128
N      -0.077412     -1.335096      0.206255
N      -1.315216     -0.559901      0.203746
H       1.011738      1.599635     -0.009408
H       1.949960     -0.786237     -0.011051
H      -0.902765     -1.530791     -0.580212
