14
Extracted from Q-Chem output
C      -1.438446      0.013753      0.366542
C      -0.122377      0.576917     -0.130111
C       0.571951     -0.234791     -1.228846
O       1.571619     -0.700616     -0.305879
C       1.127050      0.208725      0.703485
O       0.986866     -0.372645      1.943923
H      -1.384345     -1.069348      0.510534
H      -1.733212      0.468167      1.313834
H      -2.231539      0.200287     -0.359718
H       0.433018     -1.153636      1.857094
H      -0.212822      1.644689     -0.330898
H       0.001084     -1.062968     -1.657897
H       1.014229      0.356708     -2.034921
H       1.837100      1.028568      0.844554
