14
Extracted from Q-Chem output
C      -1.817590      0.046120      0.182569
C      -0.398202      0.562037      0.045820
C       0.460772     -0.181383     -0.936226
O       1.822862      0.105405     -0.468824
C       1.892376      0.091003      0.818135
O       1.355079     -0.743826      1.675140
H      -1.847680     -1.025838      0.420089
H      -2.336590      0.563515      0.993088
H      -2.439773      0.175270     -0.716644
H       0.403502     -0.701858      1.428639
H      -0.388382      1.630946     -0.179597
H       0.291140     -1.263575     -0.906731
H       0.497705      0.128198     -1.988724
H       2.808891      0.549113      1.189021
