14
smiles: [C:2]1([H:8])=[C:6]([H:13])[C:5]([H:12])=[C:4]([H:11])[C:3]1([H:9])[H:10].[O:1]([H:7])[H:14]
O       -1.92142300       0.00750900       1.73843300
C       -0.36028800       0.01457300      -1.27820500
C        0.29962400       1.14716100      -0.55522000
C        1.19952600       0.44956400       0.41720100
C        1.07102100      -0.87451500       0.26787400
C        0.09566900      -1.14631600      -0.79200000
H       -0.98646000      -0.07601000       1.92989400
H       -1.08864100       0.14400800      -2.06637600
H       -0.42933100       1.79043100      -0.04938400
H        0.86165300       1.79564400      -1.23700900
H        1.84300000       0.96125000       1.11891800
H        1.59608400      -1.63458200       0.83083800
H       -0.19930900      -2.13463100      -1.11848700
H       -2.03258500      -0.34294000       0.85376900
