14
Extracted from Q-Chem output
C      -1.108228     -1.185100      0.082695
C      -1.560391      0.231446     -0.305775
O      -0.346518      0.902200     -0.566494
C       0.571975      0.339613      0.332307
C       1.982949      0.565446     -0.131124
O       0.272399     -1.039260      0.369385
H      -1.645677     -1.562865      0.957201
H      -1.219730     -1.898373     -0.736398
H      -2.175791      0.263880     -1.203445
H      -2.098315      0.717736      0.517359
H       0.404828      0.769201      1.336310
H       2.199060      1.633434     -0.160301
H       2.678236      0.082413      0.555076
H       2.109882      0.142781     -1.127667
