14
Extracted from Q-Chem output
C      -0.878372     -1.273459      0.133506
C      -1.243868      0.137423     -0.383650
O      -0.630536      1.156555      0.471126
C       0.649115      1.002112      0.642344
C       1.455578      0.228032     -0.185215
O       0.422908     -1.408869      0.515928
H      -1.564148     -1.493480      0.974616
H      -1.196496     -1.950441     -0.688791
H      -0.920013      0.328584     -1.409899
H      -2.311687      0.336572     -0.320009
H       1.049250      1.430262      1.554817
H       1.601286      1.583994     -0.342534
H       2.438957     -0.036605      0.174991
H       1.163679     -0.070218     -1.176090
