13
Extracted from Q-Chem output
C      -2.129378      0.035024     -0.184725
O      -1.086758     -0.747005      0.377206
C       0.140003     -0.261587      0.207356
C       0.643993      0.846612     -0.400952
N       2.004725      0.883055     -0.138294
C       2.360734     -0.239746      0.591271
N       1.192087     -0.938404      0.748868
H      -2.144661      1.031819      0.263280
H      -3.057763     -0.483995      0.039085
H      -2.005888      0.119562     -1.267564
H       0.141190      1.620622     -0.954978
H       2.822529      0.041095     -0.580398
H       1.109285     -1.808602      1.244380
