21
Extracted from Q-Chem output
C      -2.390487      0.876121      0.950209
C      -1.840833      0.260407     -0.325634
C      -1.072032     -1.036466     -0.109024
O      -0.482753     -1.583132     -1.073856
C       1.608851     -1.105879     -1.248247
C       2.000610     -0.362188     -0.166275
C       2.157227      1.140034     -0.244995
H      -1.587732      1.149498      1.639440
H      -2.966316      1.777702      0.737234
H      -3.051644      0.179823      1.471756
H      -2.656794      0.022253     -1.015270
H      -1.188175      0.957873     -0.857676
H      -1.476351     -1.689828      0.687429
H      -0.088840     -0.531406      0.823240
H       1.326363     -0.631951     -2.177422
H       1.770575     -2.172458     -1.285567
H       2.580506     -0.868898      0.601995
H       0.776488     -0.446648      0.570903
H       1.507509      1.552875     -1.019141
H       3.185957      1.412717     -0.488814
H       1.901290      1.624609      0.699147
