14
smiles: [C-:2]1=[O+:3][C:4]([H:11])([H:12])[C:5]([H:13])([H:14])[O:6]1.[C:1]([H:7])([H:8])([H:9])[H:10]
C       -2.21863000      -0.19580000       0.54321300
C        0.73332500      -1.34470500      -1.33451300
O        0.64658000      -0.08641700      -1.70017200
C        1.11204700       0.83265100      -0.67373200
C        1.49180600      -0.10203400       0.45506700
O        1.21665500      -1.41137100      -0.11531500
H       -1.63530700      -1.06979200       0.82914200
H       -3.27508400      -0.39011200       0.72240000
H       -1.90187700       0.66143900       1.13530600
H       -2.06204400       0.01499000      -0.51360300
H        1.94910400       1.39404600      -1.08440800
H        0.29465300       1.51002500      -0.43533400
H        0.87953200       0.00707200       1.34820600
H        2.54579900      -0.06967000       0.72356900
