13
Extracted from Q-Chem output
C      -2.200891      0.075864     -0.737333
N      -1.322257      0.180706      0.547200
C       0.020891     -0.333586      0.374725
O       0.312717     -1.467303      0.606311
O       0.799956      0.624995     -0.094098
C       2.113756      0.211020     -0.486864
H      -1.620340      0.637267     -1.479879
H      -1.786404     -0.359118      1.270607
H      -2.126876     -0.987439     -0.996634
H      -1.309854      1.158870      0.818608
H       2.642672     -0.220634      0.361744
H       2.610430      1.111458     -0.835373
H       2.043543     -0.523794     -1.287934
