13
Extracted from Q-Chem output
C      -2.595751     -0.252684     -0.340001
N      -1.134718      0.354822      0.320775
C       0.101089     -0.257847      0.065232
O       0.257503     -1.435095     -0.054457
O       1.051346      0.673884     -0.018576
C       2.369021      0.178040     -0.275321
H      -2.802762      0.492601     -1.111437
H      -1.864868     -0.080523      0.979474
H      -2.210843     -1.162207     -0.806453
H      -1.113489      1.361743      0.375432
H       2.675389     -0.505606      0.515381
H       3.011029      1.053981     -0.296306
H       2.395804     -0.341514     -1.232351
