15
Extracted from Q-Chem output
C       1.641256     -0.673877      0.121077
C       0.527263      0.246265      0.584749
C       0.373113      1.477868     -0.350437
O      -0.266250      0.896459     -1.477074
C      -1.289693      0.858432     -0.519893
C      -0.932819     -0.267103      0.432853
O      -1.164469     -1.554202     -0.060376
H       2.608466     -0.178913      0.221250
H       1.521395     -0.954289     -0.926492
H       1.657500     -1.586274      0.717977
H       0.716137      0.578080      1.606610
H      -0.950252      1.870055      0.108032
H      -2.268885      1.122247     -0.911274
H      -1.474751     -0.197119      1.375866
H      -0.737479     -1.630153     -0.917879
