12
smiles: [H:11][H:12].[N:1]([C+:2]1[C:3]([H:10])=[N:4][C:5](=[O:6])[N-:7]1)([H:8])[H:9]
N        2.54122000       0.71410700       0.27735700
C        1.24395400       0.45855200       0.11232000
C        0.70786700      -0.91322700      -0.21620600
N       -0.54720200      -0.87076200      -0.31635200
C       -0.88059600       0.55536600      -0.05131100
O       -1.99813100       0.95227000      -0.06574100
N        0.28461600       1.30720100       0.20497100
H        3.23064200      -0.00701200       0.18361200
H        2.83672300       1.64957000       0.49447500
H        1.29763900      -1.81583400      -0.34799700
H       -4.73033300      -1.32140000      -0.20267100
H       -4.09098000      -0.93980100      -0.20021700
