12
Extracted from Q-Chem output
N       2.121656     -0.609232     -0.216652
C       0.895605     -0.311269     -0.091396
C       0.183614      1.035600     -0.002238
C      -1.265918      0.654627      0.141743
C      -1.351734     -0.673063      0.133563
N      -0.098761     -1.262813     -0.005196
H       2.692481      0.227456     -0.262151
H       0.563921      1.604428      0.850318
H       0.383754      1.625762     -0.900535
H      -2.089036      1.344047      0.234899
H      -2.231295     -1.294775      0.213951
H       0.096246     -2.245979     -0.024935
