12
Extracted from Q-Chem output
N       2.126755     -0.397809      0.008646
C       0.778784     -0.198193     -0.179275
C       0.031483      1.019481     -0.236542
C      -1.347683      0.672470     -0.038304
C      -1.411202     -0.667881      0.135685
N      -0.131613     -1.187338      0.043580
H       2.638529      0.327833     -0.485879
H       1.145298      0.558758      0.756743
H       0.445262      1.972545     -0.526476
H      -2.185744      1.350124     -0.050921
H      -2.255826     -1.310589      0.322459
H       0.154446     -2.125234      0.261800
