12
Extracted from Q-Chem output
N       1.976442     -0.899992      1.911921
C       1.523170     -0.569662      0.909358
C       0.879963     -0.160321     -0.396754
C      -0.330717     -0.985707     -0.767925
N      -1.373208     -0.266993     -0.186823
C      -1.058420      0.961120      0.103420
N       0.251801      1.161872     -0.278491
H       1.669138     -0.155285     -1.148810
H      -2.313484     -0.618097     -0.125580
H      -0.334934     -2.051778     -0.586455
H      -1.750346      1.742244      0.365980
H       0.770468      1.892250      0.180080
