12
Extracted from Q-Chem output
N       2.228321     -0.907630      1.763226
C       1.624481     -0.589357      0.840152
C       0.813061     -0.184203     -0.349364
C      -0.447856     -1.017384     -0.544418
N      -1.525233     -0.239572      0.054231
C      -1.120121      0.984672      0.182500
N       0.196252      1.130453     -0.155625
H       1.485608     -0.187722     -1.209284
H      -1.820560     -0.639074     -0.952809
H      -0.453549     -2.057326     -0.244909
H      -1.754597      1.827982      0.408908
H       0.739677      1.900873      0.195617
