11
Extracted from Q-Chem output
O       2.522876      0.110517      0.062871
C       1.356324      0.333602     -0.018527
N       0.380968     -0.826183     -0.357748
C      -0.898929     -0.317714      0.219357
C      -0.823147      1.073568     -0.348920
O       0.636172      1.371864      0.086331
H       0.752423     -1.710657     -0.023327
H      -1.750719     -0.889978     -0.144254
H      -0.785891     -0.450448      1.310024
H      -1.401753      1.786362      0.239621
H       0.276856     -0.813869     -1.378509
