11
Extracted from Q-Chem output
O       2.519816      0.073996      0.226225
C       1.355191      0.248950      0.042827
N       0.402946     -0.825665     -0.324567
C      -0.862872     -0.366970      0.323498
C      -0.753639      0.950142     -0.408320
O       0.635272      1.327340      0.037396
H       0.770094     -1.768176     -0.247131
H      -1.700183     -0.980009     -0.002655
H      -0.743673     -0.381310      1.414061
H      -1.398467      1.764590     -0.091159
H      -0.007941     -0.320109     -1.280202
