9
Extracted from Q-Chem output
O       0.140518      1.395424     -1.087959
C       0.235106      0.322504     -0.290492
C      -0.873463     -0.187962      0.339418
O      -2.059408      0.064239      0.403408
C       1.527052     -0.254229     -0.130983
N       2.560939     -0.737272      0.011824
H      -0.782025      1.679860     -1.107620
H      -0.298082     -0.842441      1.312145
H      -0.459367     -1.403437      0.577612
