16
smiles: [C-:5]#[O+:6].[C:1]([N+:2]1([C:7]([H:14])([H:15])[H:16])[C:3]([H:11])([H:12])[C-:4]1[H:13])([H:8])([H:9])[H:10]
C        1.21907400       0.50916900      -1.42020700
N        0.27983600       0.19477800      -0.35022600
C        0.60997800      -0.92691400       0.53584300
C       -0.56169500      -1.09015900      -0.37722000
C       -2.47312900      -1.10133000       2.02190300
O       -3.20857500      -1.93343900       1.85217000
C       -0.36550000       1.36704500       0.23020800
H        1.98344800       1.20937400      -1.07346000
H        0.67283200       0.95581100      -2.25272400
H        1.69091200      -0.40936500      -1.76119300
H        1.60051900      -1.33729700       0.33967300
H        0.43950700      -0.72476500       1.59137400
H       -0.22914700      -1.61648200      -1.28054700
H       -1.07258400       1.02654500       0.98076100
H        0.37850200       2.03498000       0.67335700
H       -0.91414900       1.89163100      -0.55302100
