11
Extracted from Q-Chem output
N       2.243326      0.060646      0.670316
C       1.041523     -0.015348      0.302094
C       0.015582      1.012527      0.030067
C      -1.103696      0.406825     -0.335359
C      -0.878755     -1.070329     -0.324371
O       0.470187     -1.229423      0.082284
H      -1.013329     -1.523114     -1.311793
H       2.512477      1.030676      0.789869
H       0.197519      2.072537      0.126505
H      -2.044228      0.865420     -0.606805
H      -1.532944     -1.590639      0.382268
