11
Extracted from Q-Chem output
O      -2.301359     -1.353145      0.071573
C      -1.829327     -0.246861      0.009530
C      -0.385969     -0.001817     -0.028813
C       0.316790      1.154294     -0.148459
N       1.654649      0.837249     -0.281171
C       1.790511     -0.538848     -0.156834
N       0.537867     -1.014551      0.029836
H      -2.464301      0.656727     -0.012424
H      -0.045626      2.168941     -0.199944
H       2.419946      0.328766      0.563821
H       0.296520     -1.983890      0.152713
