11
Extracted from Q-Chem output
O      -0.200898      1.925772     -0.989723
C       0.353377      0.892702     -0.205816
C      -0.745386     -0.136410     -0.000023
N      -0.296499     -1.223254      0.826719
C       0.449332     -2.155693      0.780062
O       1.141929     -3.092880      0.847634
H       0.457422      2.608175     -1.123314
H       0.692961      1.259920      0.769933
H      -1.594514      0.340649      0.488652
H      -1.086480     -0.508841     -0.968582
H       1.207421      0.419792     -0.707861
