18
Extracted from Q-Chem output
C       2.221277      0.132013     -0.361136
C       1.139556     -0.908993     -0.263696
C       0.314682     -0.767428      0.957934
C      -0.576142     -0.077540     -0.072670
C      -0.788732      1.409651      0.120459
C      -1.826582     -0.870813     -0.408578
H       2.097640      1.045800      0.237388
H       3.098926     -0.387936      0.039978
H       2.465625      0.395896     -1.390718
H       0.063719     -0.263990     -1.049380
H       0.669031     -0.089857      1.739093
H      -0.112898     -1.675707      1.376535
H      -1.278209      1.849530     -0.750757
H       0.149879      1.938519      0.286059
H      -1.425852      1.585617      0.990215
H      -1.563847     -1.900382     -0.654349
H      -2.358858     -0.435332     -1.256824
H      -2.500798     -0.882639      0.451221
