12
smiles: [C:1](#[C:2][H:8])[H:7].[C:3](#[C:4][H:10])[H:9].[C:5](#[C:6][H:12])[H:11]
C        1.59935500      -1.39277300      -0.12012900
C        1.46225300      -2.57925100      -0.14495700
C       -1.99306400      -0.71025800       0.10879500
C       -2.96717500      -0.02111200       0.16628300
C        0.39997000       2.06710400       0.02090700
C        1.48320100       2.56868700      -0.02606500
H        1.72181800      -0.33516400      -0.09818300
H        1.33964100      -3.63677600      -0.16729600
H       -1.12439000      -1.32392300       0.05720100
H       -3.83633200       0.59186500       0.21654700
H       -0.56501300       1.61886900       0.06251900
H        2.44791400       3.01734700      -0.06778600
