12
Extracted from Q-Chem output
C       1.339461     -0.361413     -0.007676
C       0.358155     -1.336772      0.095628
C      -0.981333     -0.975492      0.102899
C      -1.339310      0.361515      0.007731
C      -0.358072      1.336921     -0.095562
C       0.981465      0.975614     -0.102841
H       2.385607     -0.644186     -0.012929
H       0.637561     -2.381162      0.170319
H      -1.747650     -1.737258      0.185115
H      -2.385634      0.643782      0.012876
H      -0.637956      2.381134     -0.170354
H       1.747706      1.737317     -0.185205
