12
smiles: [C:3](=[O:4])([H:10])[H:11].[H:8][H:12].[N:1](=[C:2](\[C:5]#[N:6])[H:9])\[H:7]
N        2.08845000       0.32071500       2.01552300
C        1.20581900      -0.00770800       1.17707800
C       -1.52475800      -1.22022600      -1.47725800
O       -1.34523900      -1.28183200      -0.29664300
C        1.28878400       0.25238900      -0.24911900
N        1.36105200       0.46181600      -1.37520900
H        2.87485800       0.79380200       1.57188900
H       -1.47159900       2.08530300       0.70012100
H        0.30685200      -0.52234600       1.51063000
H       -0.86226400      -0.63115300      -2.14009600
H       -2.36425400      -1.74713900      -1.97028100
H       -1.61877900       1.37050400       0.55220000
