12
Extracted from Q-Chem output
C      -1.271219     -0.293985     -0.279214
C       0.155382      0.097008      0.021149
C       0.521487      1.520159     -0.281508
O       1.569434      1.874368     -0.736179
C       0.878805     -0.674518      1.073412
O       0.991481     -1.015427      2.205139
N       1.270376     -0.872525     -0.189897
H      -1.460665     -0.278823     -1.355155
H      -1.496844     -1.290222      0.101951
H      -1.960406      0.406094      0.195781
H      -0.276976      2.249514     -0.033271
H       1.213374     -1.734510     -0.713384
