12
Extracted from Q-Chem output
C      -1.538221     -0.340058     -0.416564
C      -0.130164      0.077346     -0.180412
C       0.423091      1.346121     -0.046889
O       1.622502      1.545753      0.233445
C       1.440112     -0.679874      1.002156
O       1.862168     -0.658833      2.062451
N       0.897394     -0.973094     -0.114878
H      -1.671711     -0.857941     -1.372740
H      -1.927374     -0.993427      0.369774
H      -2.165568      0.552952     -0.436179
H      -0.267924      2.195593     -0.178519
H       1.489466     -1.216121     -0.906975
