15
smiles: [C:1]1([H:9])([H:10])[C:2](=[O:3])[C:4]([H:12])([H:13])[C:5]([H:14])([H:15])[C:6]1=[O:7].[H:8][H:11]
C       -0.58286100      -0.31716000      -0.63260000
C       -0.39782100       0.53723100       0.60746800
O       -1.21136800       1.28953900       1.06503800
C        0.98885500       0.28658200       1.18920700
C        1.78769800      -0.41087600       0.09025500
C        0.76105900      -0.97374100      -0.88578200
O        0.98722300      -1.80158100      -1.72284900
H       -3.97253900       1.04303800      -0.85643000
H       -0.89005800       0.28982600      -1.48688100
H       -1.36359800      -1.06510100      -0.47876600
H       -3.45041500       1.20049300      -0.34951500
H        1.41720500       1.22018200       1.55096100
H        0.85378100      -0.36202400       2.06000000
H        2.40133900       0.29862000      -0.47297200
H        2.45129900      -1.20347000       0.43295800
