15
Extracted from Q-Chem output
C       1.793270     -0.367107     -0.517262
O      -0.241250     -2.133547     -0.086678
C      -0.492698     -0.951020      0.053837
N       0.446542      0.016877     -0.156905
C       0.237458      1.430797      0.041509
C      -1.880053     -0.505032      0.469045
H       2.093423      0.124488     -1.446974
H       1.826336     -1.444291     -0.651233
H       2.500507     -0.080839      0.267642
H       0.555432      1.985993     -0.845839
H      -0.809282      1.655729      0.220179
H       0.818244      1.798413      0.894638
H      -2.339741      0.136737     -0.284490
H      -2.483734     -1.400374      0.586018
H      -1.862971      0.039493      1.414570
