16
smiles: [C:1](=[N+:2]1[C@:3]2([H:11])[C-:4]([H:13])[C@@:5]1([H:14])[C:6]([H:15])=[C:7]2[H:16])([H:8])[H:9].[H:10][H:12]
C        1.80196200      -0.57415000      -0.09216600
N        0.58616200      -0.21480700      -0.02657800
C       -0.46359400      -0.00822300       1.02670800
C       -0.72165200       1.21674300       0.15615500
C       -0.50733100       0.20554100      -0.96486300
C       -1.48224000      -0.97722100      -0.73053100
C       -1.45299300      -1.11882700       0.58967300
H        2.33859300      -0.79478500       0.82040700
H        2.29702100      -0.59299100      -1.05342700
H        2.25258800       2.18206500       0.19058300
H       -0.11814000       0.02962300       2.05903300
H        1.50822700       2.16876400       0.20698800
H       -1.67277100       1.74466200       0.23243600
H       -0.20835900       0.46298000      -1.98009100
H       -2.00120900      -1.55903400      -1.47852800
H       -1.94151600      -1.84840700       1.21925500
