14
Extracted from Q-Chem output
C      -1.370953     -0.282367      0.347950
C      -0.913649      0.903267     -0.365122
C       0.409815      1.407672      0.078716
O       1.271336      0.571219      0.912267
C       1.513402     -0.669651      0.471165
N       0.805245     -1.402231     -0.275518
C      -0.464223     -0.929301     -0.731351
H      -0.988623     -0.494282      1.345141
H      -2.422554     -0.533431      0.244438
H      -0.362483     -0.105853     -1.526476
H       0.186089      2.283161      0.693184
H       1.014789      1.745522     -0.764622
H       2.452828     -1.053773      0.861896
H      -1.011290     -1.675981     -1.301484
