11
Extracted from Q-Chem output
C      -0.360691      1.041733      0.139408
C       1.081505     -0.161808      0.211030
C       0.424273      0.440481     -0.959821
N      -0.262984     -0.868249     -1.222521
C      -1.095249     -0.085849      0.580591
C      -0.111503     -1.118356      0.193622
H      -0.463097      2.086753      0.395491
H       2.062162     -0.096458      0.673835
H       0.877515      1.038213     -1.743001
H      -2.009427     -0.138237      1.157378
H      -0.144485     -2.134579      0.577277
