11
Extracted from Q-Chem output
N      -1.179252      1.011459      0.761593
C      -1.053482     -0.007022     -0.106405
O      -1.934497     -0.389311     -0.847871
C       0.279931     -0.753197     -0.084711
C       1.498832      0.256852      0.627664
C       1.868621     -0.009219     -0.534969
H      -2.044700      1.519148      0.785336
H      -0.387056      1.303282      1.308853
H       0.261402     -1.556283      0.648482
H       0.338106     -1.248727     -1.060325
H       2.289079     -0.150670     -1.509168
