11
smiles: [H:10][H:11].[N:1]#[C:2][C@@:3]1([H:7])[C:4]([H:8])([H:9])[O+:5]=[C-:6]1
N        2.36604000      -0.31398900       1.11514300
C        1.36333600      -0.27416000       0.55950200
C        0.08349600      -0.23181600      -0.11211500
C       -1.05999100      -1.09761800       0.43106600
O       -1.81632200       0.12568900       0.60882700
C       -0.87115700       0.95941300       0.23292500
H        0.22020000      -0.29470900      -1.19345300
H       -0.88541300      -1.58325400       1.38898200
H       -1.55382600      -1.77138500      -0.26715300
H        1.61672300       2.44086600      -1.63809300
H        0.97531300       2.49006200      -1.26318500
