11
Extracted from Q-Chem output
N       2.636847     -0.557452      0.593017
C       1.585352     -0.525386      0.134859
C       0.253502     -0.494545     -0.428649
C      -0.966863     -0.499898      0.505103
O      -1.533716      0.567422     -0.275736
C      -0.387813      0.815527     -0.959787
H       0.167555     -1.247560     -1.214036
H      -0.736642     -0.145580      1.514401
H      -1.599274     -1.387108      0.526524
H       0.468971      1.767773      0.171025
H       0.207857      1.909948     -0.678789
