16
Extracted from Q-Chem output
O      -2.050066     -1.351822      0.658163
C      -1.698473     -0.650863     -0.505342
C      -0.941224      0.642013     -0.220337
C       0.418567      0.417057      0.400201
C       1.628156      0.190583     -0.559226
N       1.429236      1.448318      0.080330
C       0.696019     -0.667751      1.248547
H      -1.212520     -1.528571      1.120352
H      -2.626735     -0.412157     -1.028631
H      -1.525836      1.253971      0.471937
H      -0.824750      1.224843     -1.137586
H       1.297298      0.101351     -1.587232
H       2.475347     -0.429441     -0.290700
H       2.080557      1.545139      0.852211
H      -1.098708     -1.280810     -1.180898
H       1.681910     -0.536681      1.720435
