18
Extracted from Q-Chem output
C      -2.351410     -0.240252     -0.025696
C      -1.783587     -1.034802      0.926560
C       0.601230     -0.724580      0.972474
C       0.948337      0.168213      0.006792
C       1.893524      0.260824     -1.124215
C       1.744900      1.404961     -0.126131
H      -1.158589      0.541045     -0.725822
H      -2.831973      0.690342      0.254946
H      -2.659387     -0.659323     -0.977096
H      -1.794380     -0.737254      1.965622
H      -1.608719     -2.083513      0.731025
H       0.700189     -1.787189      0.796383
H       0.506808     -0.407570      2.002345
H      -0.308328      0.590669     -0.652981
H       2.794550     -0.338966     -1.081225
H       1.511360      0.426397     -2.124451
H       1.267885      2.309833     -0.483052
H       2.545346      1.569578      0.584921
