14
Extracted from Q-Chem output
N       1.890126     -1.601820      0.017110
C       1.106732     -0.641071     -0.190717
O       1.232841      0.253972     -1.246928
C       0.278184      1.227787     -0.994004
C      -0.950812      0.532445     -0.392728
C      -1.507912     -0.343162     -1.361571
C      -0.040204     -0.168843      0.596494
H       2.642565     -1.610247     -0.668149
H       0.259420      1.977485     -1.783709
H       0.514277      1.206395      0.436356
H      -1.627223      1.246423      0.066681
H      -0.851585     -0.993578     -1.925424
H      -2.565531     -0.380031     -1.596113
H      -0.368236     -0.768460      1.438789
