19
Extracted from Q-Chem output
C       2.167285     -1.030648      0.110218
C       0.886018     -0.354453      0.570223
O       0.625651     -0.633993      1.942180
C      -0.960446      1.891563     -1.305731
C      -1.755187      1.286377     -0.435512
C      -1.614900     -0.100530      0.123180
C      -0.326924     -0.844494     -0.207462
H       3.022995     -0.693113      0.700339
H       2.375201     -0.801335     -0.937266
H       2.083826     -2.114103      0.220371
H       1.326900     -0.252408      2.472177
H      -0.071865      1.421047     -1.711366
H      -1.175030      2.895446     -1.650912
H       0.983023      0.731206      0.437265
H      -2.627838      1.829713     -0.079402
H      -2.472380     -0.685503     -0.227582
H      -1.724391     -0.052501      1.210779
H      -0.115580     -0.786927     -1.278962
H      -0.457046     -1.904916      0.028073
