9
Extracted from Q-Chem output
N      -2.122631     -1.213062      0.224726
C      -1.229002     -0.387848      0.213924
O       0.741440     -0.457767     -0.668919
C       1.276498      0.629151     -0.051524
O       1.933006      0.746319     -1.166923
C      -0.857343      0.919805      0.427809
N       0.134999      1.611984      0.318577
H      -1.865328     -2.151374     -0.069024
H       1.827836      0.468233      0.882680
