18
Extracted from Q-Chem output
C      -0.934021     -1.570656     -0.410014
C      -0.246372     -0.322861     -0.830599
C      -1.167293      1.273673      0.409651
N       1.017091     -0.012598     -0.562850
C       1.722201     -0.716461      0.488120
C       0.646316      1.477851     -0.244063
O       0.728584      2.307763     -1.125150
H      -0.663300     -1.877884      0.598849
H      -2.014098     -1.447971     -0.475263
H      -0.645328     -2.369315     -1.100938
H      -0.651234      0.203257     -1.688232
H      -1.167088      2.323045      0.700752
H      -2.014567      1.143042     -0.265849
H      -1.303591      0.666071      1.308929
H       1.194557     -0.704980      1.450625
H       1.885281     -1.755018      0.197286
H       2.695426     -0.244740      0.620378
H       1.005446      1.575242      0.790612
