11
Extracted from Q-Chem output
O      -2.610595     -1.218650     -0.137004
C      -2.001134     -0.189719     -0.152612
C      -0.511941     -0.094342     -0.037234
C       0.280027      1.153228     -0.074839
N       1.520908      0.893455      0.053203
C       1.586723     -0.543753      0.181330
N       0.259343     -1.101087      0.113544
H      -2.520326      0.784720     -0.255032
H      -0.099911      2.162415     -0.193727
H       2.206098     -0.968625     -0.614761
H       2.053804     -0.820101      1.131866
