11
Extracted from Q-Chem output
O      -2.492599     -1.263723      0.089146
C      -1.929789     -0.214127     -0.060483
C      -0.468407     -0.042017     -0.113284
C       0.257310      1.158441     -0.119205
N       1.560570      0.925722     -0.058298
C       1.651269     -0.420881     -0.039205
N       0.396287     -1.072084     -0.116250
H      -2.498727      0.731326     -0.171704
H      -0.137776      2.165989     -0.136100
H       2.561492     -0.969921     -0.240167
H       1.153666     -0.993040      0.964185
