13
Extracted from Q-Chem output
C       1.909330      0.355491      0.103579
C       0.449920      0.093329      0.023482
C      -0.210005     -1.249926      0.180441
N      -1.618232     -0.975238      0.020350
C      -1.656969      0.279632     -0.180000
O      -2.772547      0.972548     -0.381335
N      -0.432560      0.996592     -0.190996
H       2.298680      0.036260      1.072749
H       2.113801      1.414598     -0.036790
H       2.439504     -0.218210     -0.659755
H       0.145836     -1.964231     -0.569683
H       0.002668     -1.689301      1.160967
H      -2.522572      1.893171     -0.505579
