11
Extracted from Q-Chem output
C      -1.220520      1.082099      0.554909
O      -1.061848      0.113085     -0.461568
C       1.061860     -1.480775      0.066422
C       1.133332     -0.454132     -0.763737
O       0.152578      0.415687     -1.123295
H      -2.173344      0.836140      1.023890
H      -0.416094      1.015141      1.292418
H      -1.264310      2.087912      0.131050
H       1.951449     -2.069377      0.235357
H       0.146649     -1.759562      0.566357
H       2.037055     -0.167464     -1.290147
