16
Extracted from Q-Chem output
C       2.281555     -0.037129     -0.149121
O       1.751734     -0.672689     -1.101982
C      -0.401219     -0.519174     -1.157248
C      -0.867600     -0.152626      0.079858
C      -1.692164      1.085021      0.327324
O      -1.117628     -1.111220      1.047339
H       2.744068     -0.597989      0.679828
H       2.752110      0.940662     -0.346764
H       1.288567      0.502913      0.670154
H      -0.283687     -1.553838     -1.439199
H      -0.362389      0.210034     -1.951953
H       0.396520      0.388514      0.474848
H      -1.546019      1.452753      1.342987
H      -2.750063      0.845966      0.202587
H      -1.426483      1.871353     -0.378049
H      -0.662927     -1.923254      0.811506
