13
Extracted from Q-Chem output
C      -1.627488      0.563774     -0.235524
O      -0.759811     -0.236730     -1.033012
C       0.549191     -0.269684     -0.776977
N       1.386342     -0.992495     -1.356340
N       0.622781     -0.805576      1.854339
C       1.106349      0.268504      1.428307
O       0.983731      0.665009      0.143044
H      -2.618334      0.421960     -0.659517
H      -1.353344      1.617568     -0.292323
H      -1.620153      0.224758      0.800864
H       0.924981     -1.597028     -2.028252
H       0.822330     -0.930853      2.839715
H       1.655266      1.025447      1.987650
