13
Extracted from Q-Chem output
O       1.587777      1.798595      0.618780
C       0.933001      0.734284      0.167579
N       1.354598     -0.459369      0.226363
C       0.329550     -1.299341     -0.387962
C      -0.820641     -0.347589     -0.697037
C      -1.395674      0.424271      0.416537
N      -0.327292      1.009608     -0.416819
H       2.424985      1.481049      0.975407
H       0.046360     -2.115331      0.281470
H       0.717976     -1.748075     -1.305758
H      -1.387073     -0.466053     -1.612045
H      -2.359771      0.902728      0.301736
H      -1.131826      0.141860      1.430271
