17
smiles: [C:1]([H:8])([H:9])([H:10])[H:16].[C:2]12=[C:6]([H:15])[C@:5]3([H:14])[C@:4]([H:13])([C:3]1([H:11])[H:12])[C@:7]23[H:17]
C        2.53285600      -1.45894600      -0.65541400
C       -0.18623100       0.61499300       1.05462300
C       -0.97512200      -0.66157800       0.73043200
C       -1.38234900       0.18530400      -0.52561200
C       -1.44020200       1.74932500      -0.01073400
C       -1.12641800       1.56918500       1.40732300
C       -0.18800700       1.04250400      -0.41993400
H        2.65530700      -2.51598400      -0.42419900
H        1.78041400      -1.34146400      -1.43381100
H        3.48075400      -1.05175200      -1.00406400
H       -1.74534100      -0.96395200       1.43912400
H       -0.39030300      -1.52288400       0.39818300
H       -1.81142700      -0.19458000      -1.45292200
H       -2.01342800       2.48894000      -0.55971100
H       -1.77763900       1.55979200       2.27626500
H        2.21486200      -0.92564600       0.23914300
H        0.55871400       1.32953800      -1.14222200
