16
smiles: [C:1]1([H:8])([H:9])[C@@:2]([N:5]([C:6](=[O:7])[H:16])[H:15])([H:11])[C@:3]1([O:4][H:14])[H:12].[H:10][H:13]
C       -1.22295700       0.97944500       0.62960900
C        0.21582600       0.55141500       0.74605800
C       -0.88721100      -0.45562800       0.82732100
O       -1.18998000      -1.01753000       2.05887700
N        1.04822400       0.55297600      -0.41181800
C        1.91282900      -0.46053500      -0.66312200
O        2.01423100      -1.46182500       0.00601200
H       -1.59491800       1.28509500      -0.33967700
H       -1.63680800       1.50915100       1.47666100
H       -1.02270200      -0.30688600      -3.24222000
H        0.71105300       0.77514300       1.68519500
H       -0.99467900      -1.11241900      -0.03122800
H       -0.64472700      -0.27490500      -2.60151400
H       -0.51440200      -1.67337200       2.25055200
H        1.10395300       1.37919000      -0.98161300
H        2.52343900      -0.28345700      -1.56662200
