16
Extracted from Q-Chem output
C      -1.125442      1.447940      0.020127
C      -0.183017      0.410784      0.349838
C      -0.865167     -0.973682      0.358568
O      -0.407298     -1.938591      1.098336
N       1.081412      0.442138     -0.386116
C       2.114140     -0.354582     -0.115440
O       2.087401     -1.291115      0.677460
H      -1.052459      2.002580     -0.905548
H      -1.704106      1.885621      0.818574
H      -1.659434      0.145065     -1.494056
H       0.036961      0.493719      1.425829
H      -1.945224     -0.977318      0.245024
H      -1.338643     -0.557379     -1.620294
H       0.587006     -1.840082      1.127378
H       1.215569      1.223522     -1.005765
H       3.031103     -0.110595     -0.669523
