12
Extracted from Q-Chem output
C      -0.930303     -1.354000      0.096705
C      -0.028413     -0.178036      0.175331
C      -0.138128      1.729742     -0.405874
O      -0.643456      1.018955      0.567261
C       1.388292     -0.195065      0.286035
O       2.131505      0.777816      0.251880
H      -0.347352     -2.273849      0.040655
H      -1.581841     -1.403340      0.975132
H      -1.573592     -1.317223     -0.787606
H       0.331041      2.674758     -0.159019
H      -0.337656      1.442015     -1.430111
H       1.805573     -1.206813      0.449174
