15
Extracted from Q-Chem output
C      -1.798393     -1.378944      0.107279
C      -0.749436     -0.766636      1.041709
C       0.264358     -0.017773      0.258328
C       1.282409      1.809743     -0.412334
O       0.273798      1.287328      0.455009
C       1.183379     -0.561112     -0.686162
C       1.801301      0.589119     -1.085170
H      -2.495654     -1.991419      0.679317
H      -1.312237     -2.001381     -0.643499
H      -2.368216     -0.601656     -0.404673
H      -1.210793     -0.118552      1.787752
H      -0.215814     -1.571863      1.552407
H       2.014302      2.337683      0.203609
H       0.803034      2.526092     -1.084461
H       2.597716      0.672375     -1.819620
