14
smiles: [C:4]([C@@:5]1([H:12])[C:6]([H:13])([H:14])[O:7]1)[H:10].[N:1]([C:2](=[O:3])[H:11])([H:8])[H:9]
N        1.50231900       0.68525300       1.83271100
C        1.24931900       1.90946400       1.31332600
O        1.57605600       2.95328700       1.82078200
C        0.09437200      -1.49098800       0.01597900
C       -1.25600600      -1.13845800      -0.11611000
C       -1.32979900      -0.56668100      -1.51872000
O       -2.10344600      -1.65801800      -1.17362100
H        2.00251700       0.61516100       2.70174300
H        1.21198100      -0.15066100       1.36225800
H        0.31899400      -2.26244600      -0.73961700
H        0.69980600       1.85955300       0.35549100
H       -1.80843700      -0.58789200       0.63710300
H       -0.53818300      -0.74087600      -2.24254600
H       -1.81652000       0.40344300      -1.57447500
