14
Extracted from Q-Chem output
N       1.883287      0.704096      1.754762
C       0.840973      0.896851      0.923791
O       0.089024      1.825643      0.875314
C       0.091219     -1.175830      0.448369
C      -1.160433     -0.980084     -0.279285
C      -1.427178      0.114542     -1.232731
O      -1.263033     -1.193517     -1.701324
H       1.960412      1.330202      2.538809
H       2.191589     -0.243911      1.885589
H       0.857061     -1.585691     -0.235066
H       0.849357      0.133154      0.051688
H      -2.036029     -1.336313      0.260961
H      -0.636066      0.817151     -1.474468
H      -2.433440      0.521402     -1.274872
