17
Extracted from Q-Chem output
C       1.896938     -1.441535      0.258574
C       1.224655     -0.205309      0.680438
C      -0.399347      2.159792     -0.364561
C      -1.092462      0.959574      0.224378
O      -1.818477      0.193036     -0.760733
C      -1.029933     -0.980108     -0.563609
C      -0.218080     -0.270084      0.545739
H       2.856763     -1.607967      0.747005
H       2.144767     -1.169279     -0.784557
H       1.303602     -2.364948      0.214089
H       0.174713      2.677857      0.404949
H      -1.135418      2.848443     -0.782739
H       0.290321      1.861127     -1.157018
H      -1.765506      1.260807      1.033605
H      -0.458700     -1.247056     -1.459409
H      -1.635106     -1.837894     -0.258397
H      -0.426298     -0.677828      1.554709
