15
Extracted from Q-Chem output
C      -1.323943      0.377491      0.869680
C      -0.854127     -0.815837     -1.249765
N      -0.230955     -0.050119     -0.031878
C       0.785264     -0.848994      0.612487
C       1.956551     -0.250551      0.412191
N       1.813252      0.933219     -0.340162
C       0.561217      1.039773     -0.550622
H      -2.000344      1.011130      0.300236
H      -1.856643     -0.521690      1.168623
H      -0.914482      0.914854      1.726408
H      -1.283658     -0.016528     -1.868914
H       0.013888     -1.229305     -1.777363
H       0.499407     -1.777166      1.077050
H       2.932528     -0.585669      0.725889
H       0.055399      1.824317     -1.095486
