15
Extracted from Q-Chem output
C      -1.361252      0.314856      0.751875
C      -1.112470     -0.510702     -1.223251
N       0.041010     -0.111190     -0.348700
C       1.042246     -0.897791      0.235098
C       2.044221     -0.057240      0.568479
N       1.775030      1.232472      0.124857
C       0.611072      1.161699     -0.425501
H      -1.917659      1.169121      0.397636
H      -1.979522     -0.555756      0.912436
H      -0.706634      0.530853      1.600410
H      -0.794949     -0.486283     -2.266087
H      -1.405652     -1.515215     -0.930520
H       0.894269     -1.954483      0.380697
H       2.958809     -0.282629      1.094782
H       0.064833      1.967216     -0.893838
