10
Extracted from Q-Chem output
O      -1.240332      1.700515      0.259224
C      -0.396557      0.823910      0.108440
C      -0.941430     -0.623495      0.014129
N       0.176510     -1.549037     -0.156143
C       1.289662     -1.193501     -0.209220
N       0.924249      0.923262      0.011623
H      -1.485621     -0.887433      0.919137
H      -1.615774     -0.723982     -0.834447
H       2.015440     -0.339580     -0.187950
H       1.273853      1.869342      0.075207
