13
Extracted from Q-Chem output
O       2.175333      1.018491     -0.496169
C       0.932954      0.594880     -0.235026
C       0.673162     -0.882526     -0.189322
C      -0.744680     -0.899437      0.392854
C      -1.238380      0.547246      0.163245
N      -0.048171      1.367819     -0.048716
H       0.726771     -1.289662     -1.202871
H       1.414540     -1.409366      0.411460
H      -1.390375     -1.645201     -0.069877
H      -0.706075     -1.115486      1.461818
H      -1.881619      0.622785     -0.719259
H      -1.811916      0.931467      1.008275
H       2.145624      1.982301     -0.514664
