9
Extracted from Q-Chem output
O      -0.329857      1.549427     -0.709952
C      -0.045990      0.314464     -0.220454
C      -1.159138     -0.596598     -0.002823
O      -2.291097     -0.245822     -0.252924
C       1.179793     -0.078361      0.087583
N       2.287518     -0.538208      0.262186
H      -1.294424      1.561350     -0.803708
H       2.695905     -0.425679      1.187528
H      -0.921120     -1.599253      0.388176
