9
Extracted from Q-Chem output
O      -0.141973      1.465518     -0.802136
C       0.078082      0.220747     -0.352710
C      -1.046850     -0.558297      0.092274
O      -2.177070     -0.119946     -0.012694
C       1.369403     -0.176302     -0.007597
N       2.535255     -0.494826      0.084644
H      -1.089373      1.626108     -0.654158
H       1.345639     -0.421700      1.120264
H      -0.833710     -1.561986      0.499475
