14
Extracted from Q-Chem output
O       3.119136      0.383029     -0.583184
N       1.978405      0.422230     -1.392430
C       1.089615     -0.355821     -1.050266
C       0.070281     -1.123997     -0.792118
C      -1.075561     -0.754697      0.107540
C      -0.919011      0.597350      0.770403
O      -2.063658      0.811129      1.573421
H       3.689468      1.032719     -1.001368
H      -0.002993      0.608063      1.375175
H       0.056238     -2.102805     -1.260487
H      -1.189717     -1.519418      0.881071
H      -2.005044     -0.761868     -0.469684
H      -0.821477      1.377931      0.005248
H      -1.981789      1.659223      2.010670
