14
Extracted from Q-Chem output
C       1.629462     -0.578184     -0.184755
N       0.399515      0.078994      0.251301
C       0.085378      1.442864     -0.338958
O       0.831859      2.378607     -0.342736
N      -1.113593      1.097548     -0.747115
C      -1.029303     -0.475697     -0.199180
N      -1.747817     -0.866760      0.803035
H       1.621116     -0.659143     -1.270574
H       1.682253     -1.570556      0.260276
H       2.486627      0.020251      0.121537
H       0.317112      0.105229      1.267799
H      -1.814790      1.721437     -1.112713
H      -0.888402     -1.055097     -1.118251
H      -2.343341     -1.643419      0.554028
