11
Extracted from Q-Chem output
O       0.054158      0.989938      1.524028
C      -0.115196      0.918563      0.234795
C      -1.128893     -0.042813     -0.458421
C      -0.163198     -1.149783     -0.129502
C       1.036914     -0.572779      0.168642
C       1.162172      0.809227     -0.464576
O       1.960679      1.359311     -1.138396
H      -2.063914     -0.133786      0.090969
H      -1.325344      0.202925     -1.500354
H      -0.462978     -2.107241      0.284378
H       0.902660     -0.009977      1.469586
