18
Extracted from Q-Chem output
C      -0.869101     -1.124426     -0.727319
C      -0.948033      0.357251     -0.385465
C      -1.964009      0.653747      0.734691
N       0.224532      1.069827     -0.027723
C       2.137505     -0.306159      0.678143
C       1.521141      0.624488     -0.392793
O       1.435236      0.197676     -1.632094
H      -0.574118     -1.710679      0.144787
H      -1.856176     -1.468742     -1.038668
H      -0.151433     -1.305009     -1.525835
H      -1.323820      0.898709     -1.270222
H      -2.054123      1.725559      0.902996
H      -2.937304      0.250221      0.455218
H      -1.650507      0.179558      1.666251
H       2.179886      0.165522      1.660685
H       1.572892     -1.234663      0.735416
H       3.149216     -0.527945      0.337182
H       2.118410      1.567147     -0.350020
