17
Extracted from Q-Chem output
C      -2.156078     -0.349172     -0.517114
C      -1.349852      0.915440     -0.555596
C      -0.874857     -0.258353      0.250875
C       0.323185     -1.054971     -0.201511
C       1.653745     -0.494002      0.271241
C       1.945232      0.933451      0.547886
C       1.820431     -0.034407      1.672578
H      -2.166598     -0.969515     -1.404923
H      -3.086470     -0.344428      0.034628
H      -0.813366      1.144642     -1.468273
H      -1.733838      1.781992     -0.033279
H       0.237693     -2.082320      0.165368
H       0.327604     -1.105215     -1.295239
H       2.514473     -1.080553     -0.048304
H       1.148623      1.673234      0.538963
H       2.924207      1.347006      0.332285
H      -0.974148     -0.166677      1.328591
