13
Extracted from Q-Chem output
C      -0.378284      1.371862     -1.446260
C       0.086124      0.417636     -0.408815
C      -0.083980     -1.169563      1.192258
N      -0.784186     -0.325064      0.255745
C       1.470770      0.205982     -0.038071
C       1.332280     -0.751117      0.921165
H       0.116119      1.120775     -2.385792
H      -0.030930      2.369669     -1.174684
H      -1.460253      1.380897     -1.586962
H      -0.274721     -2.225688      0.976351
H      -0.408193     -0.963572      2.217225
H      -1.782372     -0.315181      0.128716
H       2.138118     -1.216653      1.480892
