13
Extracted from Q-Chem output
C       1.892085     -0.001397     -0.343866
C       0.633918      0.628926      0.124758
O       0.747446      1.883077      0.591329
N      -0.508436      0.083437      0.101138
C      -1.273399     -1.085930     -0.199162
C      -1.910198      0.215074      0.255068
H       2.345875      0.611655     -1.124648
H       2.605934     -0.075988      0.478219
H       1.690985     -0.997085     -0.733355
H      -1.080732     -1.917147      0.478387
H      -1.345369     -1.360802     -1.248199
H      -2.183400      0.220266      1.313327
H      -0.141078      2.237645      0.728485
