14
Extracted from Q-Chem output
C      -1.968609     -0.142248     -0.089306
C      -0.522239     -0.144718      0.289018
N      -0.012326     -1.078751      1.329466
C      -0.017291      0.255904      1.703081
C       1.809648      0.419356     -1.051477
C       0.475299      0.200667     -0.585796
O       0.587200      0.797874     -1.773248
H      -2.261455      0.838366     -0.465984
H      -2.556353     -0.364383      0.798421
H      -2.175456     -0.890793     -0.856200
H       0.889021     -1.506605      1.091682
H       0.965358      0.736686      1.812639
H       2.364266     -0.386422     -1.520646
H       2.386491      1.265019     -0.693558
