14
Extracted from Q-Chem output
C      -1.996364     -0.088852     -0.026879
C      -0.526498     -0.113198      0.237280
N       0.039719     -1.097923      1.205631
C       0.154548      0.234964      1.539826
C       1.821686      0.416903     -0.732606
C       0.424477      0.117948     -0.777923
O       0.421470      0.526716     -1.975767
H      -2.290830      0.882678     -0.427080
H      -2.529873     -0.261448      0.905363
H      -2.275529     -0.859103     -0.747551
H       0.869947     -1.597340      0.876314
H       1.149919      0.712313      1.577010
H       2.599811     -0.331972     -0.844505
H       2.101070      1.458265     -0.821023
