17
Extracted from Q-Chem output
C      -1.884793      0.968472     -0.430340
C      -1.426765     -0.404063      0.030447
N      -0.036631     -0.677921     -0.322900
C       0.871744     -1.715082      0.376500
C       1.059652     -0.250961      0.564365
C       2.215558      0.468048     -0.077571
H      -2.930606      1.128356     -0.164664
H      -1.291011      1.757056      0.034947
H      -1.799738      1.071118     -1.514562
H      -1.500684     -0.505875      1.114061
H      -2.041486     -1.192826     -0.410057
H       0.247380     -2.106594      1.189876
H       0.152033     -0.595159     -1.312214
H       0.652364      0.270165      1.434163
H       3.060363      0.471913      0.613673
H       1.977732      1.505857     -0.329411
H       2.535558     -0.066237     -0.973864
