12
Extracted from Q-Chem output
O      -1.388863      1.154250      0.699276
C      -1.148095      0.017512     -0.085698
C       0.538892     -1.018134      0.658150
O       1.661239     -0.541426      0.269129
C       1.372026      0.651834     -0.935280
O       2.258965      1.158494     -1.448141
H      -0.985313      1.919964      0.284557
H      -1.615525      0.087016     -1.081268
H      -1.644783     -0.815665      0.401904
H       0.228288     -1.992270      0.268860
H       0.191662     -0.759070      1.660220
H       0.045195      0.256924     -0.635939
