12
Extracted from Q-Chem output
O       2.624873     -0.583714      0.076488
C       1.383985     -0.342831      0.052818
C       1.195480     -1.697022      0.005047
C      -1.597982     -0.032403     -0.257481
C      -0.600430      1.068213     -0.144280
C       0.719386      0.938457     -0.001375
H       1.145341     -2.197667      0.972959
H      -1.134221     -1.005541     -0.417704
H      -2.285688      0.167931     -1.081349
H      -2.202164     -0.077621      0.653020
H      -0.999625      2.078256     -0.186532
H       1.367053      1.804923      0.061620
