12
Extracted from Q-Chem output
O       2.626024     -0.514404      0.250218
C       1.429289     -0.304476      0.063332
C       0.748213     -1.543606     -0.118621
C      -1.405603     -0.131930     -0.177129
C      -0.535480      1.080411     -0.176737
C       0.786670      1.010044     -0.054601
H       0.508151     -2.031201      0.834375
H      -0.852180     -1.031260     -0.555539
H      -2.258196     -0.026857     -0.849547
H      -1.788628     -0.353008      0.821273
H      -1.021722      2.046629     -0.268246
H       1.428104      1.882381     -0.022684
