13
Extracted from Q-Chem output
C       1.538594      0.382567      1.708004
O       0.951168     -0.757526      1.493246
C       0.234079     -1.120831      0.480623
C      -1.146206     -0.277443     -1.543464
O      -2.174001     -0.107989     -0.556028
C      -1.103377      0.831287     -0.666725
C       0.027166     -0.191015     -0.624271
H       1.411895      1.199818      1.015737
H       2.100155      0.431852      2.624015
H      -0.203932     -2.100335      0.569341
H      -1.329469     -0.401391     -2.596394
H      -1.227901      1.893099     -0.792905
H       0.942802      0.190504     -1.092672
