15
Extracted from Q-Chem output
O      -1.579848      1.162331      1.066546
C      -1.606980      0.582604     -0.229671
C      -0.751988     -0.647456     -0.220991
C       0.563861     -0.689711      0.294885
O       0.831172     -1.886347      0.673524
C       1.577309      0.379893      0.487482
O       2.661113     -0.005282      1.282041
H      -2.093160      1.971349      1.053152
H      -1.258282      1.316444     -0.972546
H      -2.627619      0.298117     -0.511192
H      -0.843726     -1.278608     -1.105647
H      -0.410269     -1.924250      0.484047
H       1.907839      0.688623     -0.515689
H       1.063830      1.237058      0.934098
H       2.642188     -0.964911      1.357815
