10
Extracted from Q-Chem output
O       2.131846     -0.238794     -0.027336
C       0.807309     -0.161870     -0.056786
N      -0.024071     -1.147916      0.021879
C      -1.260813     -0.502915     -0.058958
C      -1.172148      0.915156     -0.245391
N       0.204351      1.050992     -0.162558
H       2.366630     -1.170036      0.046640
H      -2.172927     -1.074911     -0.160315
H      -1.550816      0.282484      0.899310
H       0.692931      1.928612     -0.186716
