18
Extracted from Q-Chem output
C      -1.590050      0.980359      0.419896
C      -1.215210     -0.095579     -0.546207
C      -1.592865     -1.462781     -0.070640
C       0.966454     -0.178320      0.032925
C       2.283652     -0.127093     -0.674054
C       1.800505      1.048069      0.129148
H      -1.123314      1.938245      0.193007
H      -2.668540      1.115467      0.270637
H      -1.442285      0.741209      1.483712
H       0.102334     -0.092728     -0.800017
H      -1.090247     -2.254993     -0.626185
H      -1.483062     -1.644159      1.009905
H      -2.661532     -1.549878     -0.300109
H       0.828055     -0.826139      0.886184
H       3.091572     -0.731963     -0.282866
H       2.277289     -0.029783     -1.752543
H       1.473777      1.921929     -0.422200
H       2.280638      1.267785      1.073793
