19
Extracted from Q-Chem output
C       2.265735      0.776114      0.163222
C       1.232555      0.837217     -0.907295
O       0.530119     -1.481054     -0.394798
C      -0.431489     -1.682798      0.482235
C      -1.510153     -0.484102      0.516361
C      -1.976822      0.005367     -0.828474
C      -1.098382      0.805216      0.045780
H       3.218460      1.098593     -0.273093
H       2.043950      1.449850      0.992065
H       2.366282     -0.246770      0.518049
H       1.288296      0.081390     -1.675512
H       0.986550      1.833677     -1.272634
H      -1.063632     -2.571016      0.285288
H      -0.090604     -1.734810      1.539042
H      -2.167732     -0.539783      1.374825
H      -1.499862     -0.503759     -1.662502
H      -2.990650      0.347725     -0.994649
H       0.061355      0.650361     -0.323836
H      -1.240591      1.790871      0.463252
