10
Extracted from Q-Chem output
N       1.997483     -0.263078     -0.880729
C       0.862898     -0.184412     -0.337922
C      -0.285686      0.707872     -0.451092
C      -1.212167      0.253729      0.394154
N      -0.805630     -0.924834      0.986271
O       0.524577     -1.132695      0.605864
H      -0.851123     -0.971704      1.996939
H       2.116155      0.477564     -1.561201
H      -0.349301      1.557037     -1.109373
H      -2.196093      0.635430      0.625094
