10
Extracted from Q-Chem output
N       1.654094     -0.208286     -0.076541
C       0.496993     -0.464945     -0.640118
C      -0.601664      0.463467     -0.807038
C      -1.190812      0.203615      0.390227
N      -0.606602     -0.863850      1.063866
O       0.007470     -1.581346     -0.061376
H       0.849645     -0.342267      1.038822
H       1.967928      0.739997     -0.260743
H      -0.698046      1.314264     -1.457905
H      -1.935232      0.791974      0.908710
