11
Extracted from Q-Chem output
O       1.754336      0.702638     -0.881891
C       1.536083      0.453373      0.266330
C       0.173059      0.490941      0.916754
N      -0.791779     -1.397340     -0.675783
C      -1.252863     -0.232476     -0.777431
O      -0.865192      0.780079      0.011149
H       2.353290      0.186562      0.969627
H       0.007766     -0.462061      1.428019
H       0.172634      1.291907      1.660690
H      -1.216526     -2.016735     -1.354658
H      -2.010523      0.119699     -1.477536
