13
Extracted from Q-Chem output
C       1.827379      0.248158      0.216523
C      -0.719848     -0.944765     -0.077675
C       0.593460      1.113678      0.118166
N      -0.645216      0.338034     -0.029654
C      -2.025520     -1.536214     -0.278983
O      -2.571915     -1.650810     -1.355852
H       1.781599     -0.408335      1.084863
H       1.938025     -0.380636     -0.666136
H       2.704837      0.890198      0.305802
H       0.483718      1.739966      1.007837
H       0.656299      1.784162     -0.743364
H      -1.473358      0.921328     -0.139952
H      -2.458794     -1.989825      0.639968
