18
smiles: [C:1](=[C:2]([H:11])[H:12])([H:8])[H:10].[C:3]([C:4]([H:13])([H:14])[H:15])([C:5]([H:16])([H:17])[H:18])=[C:6]=[N:7][H:9]
C        3.06960100      -0.62435800      -0.11993800
C        1.94813400      -0.70098900      -0.81540900
C       -1.31690700       0.40740100       0.31814200
C       -2.06274400      -0.83211100       0.73412300
C       -1.76086200       1.12420500      -0.92898000
C       -0.30639800       0.84815900       1.01828200
N        0.56452200       1.32714700       1.73487500
H        3.30587000      -1.34059800       0.65866400
H        1.50650200       1.00497900       1.52351000
H        3.79890900       0.15691700      -0.30131600
H        1.21882900      -1.48244700      -0.63454600
H        1.71185100       0.01488500      -1.59438700
H       -1.66574700      -1.25349100       1.65707400
H       -3.12101100      -0.60561200       0.89242700
H       -2.00383600      -1.59885900      -0.04372100
H       -2.80163900       1.44681000      -0.83319300
H       -1.15108900       2.00417700      -1.13057700
H       -1.70251700       0.46259600      -1.79809600
