16
Extracted from Q-Chem output
C       1.126760     -1.471350      0.065008
C       0.515140     -0.184769      0.613637
N       1.236216      1.020083      0.213545
C      -1.680439      1.190767      0.268970
O      -2.176023      2.043481      0.935877
C      -0.947604     -0.074389      0.216492
C      -1.384382      0.691071     -1.077530
H       1.082578     -1.475891     -1.028171
H       0.593785     -2.354205      0.424449
H       2.173090     -1.560311      0.364353
H       0.540059     -0.220968      1.706990
H       2.003897      1.210021      0.840138
H      -1.543387     -0.959108      0.426168
H      -2.174151      0.258591     -1.680127
H      -0.615441      1.221402     -1.627648
H       1.623506      0.920958     -0.715886
