17
Extracted from Q-Chem output
C       2.118543      0.376651      0.263421
C       0.675366      0.100521     -0.032737
C      -0.059714     -1.185652      0.416882
C      -0.869911     -0.767328     -0.826595
C      -1.515948      0.461433     -0.445781
C      -0.372561      1.235280      0.158813
O       0.387445     -0.257306     -1.407692
H       2.472474      1.219657     -0.332146
H       2.729885     -0.494824      0.028851
H       2.246766      0.621173      1.319917
H      -0.557743     -1.202090      1.385568
H       0.546683     -2.072481      0.241262
H      -2.141966     -1.470359     -0.761793
H      -2.621949     -1.076334     -0.108711
H      -2.507603      0.798906     -0.698573
H      -0.072716      2.145497     -0.364455
H      -0.589374      1.490055      1.202466
