17
smiles: [C:1]([C@@:2]1([H:11])[O+:3]=[C-:4][C:5]([H:13])([H:14])[C:6]1=[C:7]([H:16])[H:17])([H:8])([H:9])[H:10].[H:12][H:15]
C       -2.08995800      -0.21142800       0.83266500
C       -0.63817200       0.20381700       0.86555800
O        0.19993800      -1.00718600       0.97652500
C        1.16792100      -1.12057900       0.12490300
C        1.13310700       0.10895500      -0.74772300
C       -0.10505900       0.87633900      -0.36589100
C       -0.65048400       1.90978400      -0.98448300
H       -2.72645900       0.67401500       0.79588400
H       -2.29384400      -0.82082700      -0.04837300
H       -2.34560000      -0.78221400       1.72550000
H       -0.42359700       0.78366600       1.76733100
H        3.45870100      -2.82087600       0.22050400
H        2.05794900       0.66130100      -0.54153200
H        1.18322700      -0.17536200      -1.80081600
H        4.10623900      -3.18833600       0.22784600
H       -0.20548100       2.33212200      -1.87727700
H       -1.55965600       2.37743700      -0.62382500
