10
Extracted from Q-Chem output
N       1.627158      0.044633     -0.013610
C       0.200270     -0.137733     -0.048653
N      -0.640180     -1.100281     -0.355489
N      -1.777344     -0.463946     -0.120453
N      -1.697476      0.799690      0.302376
C      -0.380998      1.052214      0.361949
H       2.101095      0.022416     -0.910096
H       2.129992     -0.509012      0.671485
H      -2.662158     -0.923388     -0.255484
H       1.206484      1.168909      0.372257
