15
Extracted from Q-Chem output
O       1.945150     -0.791447     -0.557943
C       0.979061     -0.220714      0.279912
C       0.605595      1.239399     -0.045443
C      -0.844855      1.298719      0.343778
C      -1.368627      0.092388      0.536928
C      -0.365182     -0.987189      0.251069
O      -0.581182     -1.594622     -1.024638
H       1.461974     -1.309044     -1.213822
H       1.363756     -0.256392      1.303571
H       1.222609      1.956964      0.498138
H       0.744275      1.446890     -1.111174
H      -1.391000      2.229137      0.446745
H      -2.397506     -0.116324      0.802167
H      -0.991712     -0.943062     -1.599058
H      -0.375889     -1.812659      0.963619
