16
Extracted from Q-Chem output
N       1.241348      0.911868      1.155614
C       1.772507      0.070027      0.231141
C       0.804880     -0.812238     -0.545671
C      -0.558345     -1.107960      0.073006
C      -1.612122     -0.039962     -0.016240
C      -1.532965      1.116331     -0.659521
O       2.967328      0.006036      0.030864
H       1.871450      1.545506      1.614629
H       0.694136     -0.365383     -1.538305
H       1.346389     -1.744827     -0.703369
H      -0.432681     -1.389249      1.124209
H      -0.967949     -2.002779     -0.407331
H      -2.539983     -0.278704      0.498529
H       0.253839      1.091277      1.197997
H      -2.371095      1.801781     -0.674794
H      -0.644280      1.424999     -1.199202
