16
smiles: [C:1]([H:8])([H:9])([H:10])[H:12].[C:2](=[O:3])([C@@:4]([C:5]([H:14])([H:15])[H:16])([C:6]#[N:7])[H:13])[H:11]
C       -1.92408800      -0.70363700      -1.46974800
C       -0.01420600      -0.10316700       1.75110400
O       -0.10872200      -1.29299400       1.78056200
C        1.02837200       0.62858800       0.90121600
C        1.70219100      -0.27544900      -0.12571000
C        0.40900500       1.80963900       0.29733100
N       -0.09860100       2.72372000      -0.17416700
H       -1.74422400       0.33628800      -1.20152500
H       -2.97975500      -0.84298600      -1.69797700
H       -1.32673400      -0.96139700      -2.34303800
H       -0.66543900       0.55025500       2.36267500
H       -1.64544100      -1.34752900      -0.63699400
H        1.76978700       1.00162600       1.62026000
H        2.48034600       0.26801200      -0.65967000
H        0.97359900      -0.64401200      -0.84680700
H        2.14479800      -1.13307200       0.37749000
