12
Extracted from Q-Chem output
C      -1.590493     -0.146605     -0.196774
C      -0.269416      0.300702      0.420035
C       0.851576     -0.673455      0.370512
C       1.835784     -0.062950     -0.281358
N       1.429530      1.253391     -0.665707
N       0.263768      1.469901     -0.288709
H      -2.305750      0.674753     -0.179011
H      -1.441024     -0.454433     -1.232319
H      -2.006773     -0.986970      0.359251
H       0.844924     -1.668180      0.788917
H       2.825966     -0.403256     -0.543021
H      -0.445800      0.637481      1.450038
