14
Extracted from Q-Chem output
O       2.190366      0.163584      0.155450
C       1.479023     -0.912567     -0.392535
C      -0.577478      1.007022     -0.173675
C       0.210235     -1.239069      0.372954
N      -0.805423     -0.185066      0.255910
C      -1.700147      1.934619     -0.170558
O      -2.117992      2.491152      0.819584
H       1.635688      0.943384      0.011515
H       1.227889     -0.734535     -1.446309
H       2.130726     -1.787629     -0.351474
H       0.436155     -1.376176      1.433548
H      -0.227304     -2.165669     -0.008098
H      -1.723367     -0.451382      0.609016
H      -2.092480      2.176957     -1.181660
