14
Extracted from Q-Chem output
O       2.262978      0.035932      0.079569
C       1.071925     -0.278301     -0.538564
C      -0.227378      0.713194      0.425444
C      -0.116560     -1.068174      0.518055
N      -0.725325     -0.136746      1.444169
C      -1.220528      1.197756     -0.546789
O      -2.373014      1.390412     -0.221953
H       2.111998      0.873036      0.534901
H       0.774083      0.384305     -1.356826
H       1.239554     -1.239539     -1.039758
H       0.623498     -1.702823      0.995822
H      -0.804171     -1.585408     -0.145168
H      -1.741253     -0.187699      1.343321
H      -0.834433      1.544153     -1.524861
