14
Extracted from Q-Chem output
O      -2.473348      0.203483     -0.930280
C      -1.888675      0.542035      0.028845
N      -1.005230      0.317819      0.949633
C      -0.214323     -0.907936      0.971899
C       0.799894     -0.992408     -0.173394
C       1.749429      0.116390     -0.171948
C       2.516927      1.034768     -0.154659
H      -2.233276      1.887069      0.492520
H      -1.512167      1.593214      1.077792
H      -0.868664     -1.783327      0.934359
H       0.306750     -0.923401      1.928522
H       1.345007     -1.936634     -0.092615
H       0.270883     -1.014723     -1.130077
H       3.197121      1.853227     -0.143651
