18
smiles: [C:1](=[C:2]([H:11])[H:12])([H:8])[H:10].[C:3](\[C:4]([H:14])([H:15])[H:16])(=[N:5]\[H:17])[H:13].[C:6](=[O:7])([H:9])[H:18]
C       -2.03817600      -0.23028500      -0.72796300
C       -2.28426000       1.06098400      -0.86700500
C        1.08335100       0.36232500       0.79529800
C        0.70132200       1.52820000       1.65541700
N        1.48620000      -0.77436400       1.16859500
C        1.51087600      -2.13915900      -1.15598000
O        1.11811400      -1.31460900      -1.92778900
H       -1.21675700      -0.71188900      -1.24627100
H        0.81757400      -2.79806900      -0.59893200
H       -2.64743000      -0.86008000      -0.08973000
H       -1.67503800       1.69081200      -1.50524200
H       -3.10567500       1.54263300      -0.34872300
H        0.99899600       0.52361400      -0.28357600
H       -0.33849500       1.80777100       1.46831000
H        0.82154300       1.30152200       2.71586000
H        1.31523000       2.39745700       1.40716200
H        1.53101800      -0.82538600       2.18749100
H        2.58943100      -2.28790900      -0.95620100
