13
Extracted from Q-Chem output
C       1.741210      0.160664      0.225210
C       0.277896      0.246681     -0.015040
O      -0.513324      0.990108      0.893427
C      -0.817007     -0.662126     -0.375187
C      -1.643364      0.122027      0.623835
N      -0.334241      0.364911     -1.332187
H       2.197157      1.142760      0.083523
H       2.204980     -0.540766     -0.469000
H       1.938643     -0.168563      1.245094
H      -0.849988     -1.715005     -0.612754
H      -1.911795     -0.439917      1.520208
H      -2.499791      0.669474      0.227168
H       0.270397     -0.098612     -2.004329
