13
Extracted from Q-Chem output
C       1.851314      0.090697      0.304394
C       0.379532      0.273287      0.368586
O      -0.172767      1.220938      0.924809
C      -0.669713     -0.575205     -0.306676
C      -1.826104      0.041101      0.438571
N      -0.955931      0.051133     -1.561305
H       2.374675      0.941204      0.735586
H       2.152709     -0.048715     -0.735593
H       2.117771     -0.824280      0.839679
H      -0.505710     -1.668577     -0.251418
H      -1.941205      0.027361      1.516141
H      -2.657196      0.354505     -0.178791
H      -0.086602      0.188184     -2.084015
