16
Extracted from Q-Chem output
C      -2.124514     -0.182948     -0.579884
C      -0.663403      0.216832     -0.720352
O      -0.468735      1.588665     -0.402763
C       0.245556     -0.552830      0.208816
C       2.010085     -0.302247     -0.479136
O       2.076899     -0.507670     -1.638575
N       2.624746      0.065938      0.602048
H      -2.477149      0.007459      0.435879
H      -2.262498     -1.242132     -0.806499
H      -2.748951      0.388819     -1.270748
H      -0.332913      0.022049     -1.748217
H      -0.942144      2.126343     -1.039474
H      -0.099644     -0.399704      1.250208
H       0.222820     -1.629665      0.051801
H       1.287650      0.033819      0.811974
H       3.591858      0.364293      0.506846
