18
Extracted from Q-Chem output
C      -0.814820     -1.749595     -0.454601
C      -0.354974     -0.349444     -0.688956
C      -1.503258      1.661915      0.306260
N       0.846700      0.079339     -0.202937
C       1.757081     -0.809336      0.494053
C       1.046566      1.400937     -0.165649
O       0.102020      2.139426     -0.568469
H      -0.819448     -2.019281      0.606382
H      -1.841722     -1.846776     -0.809278
H      -0.227237     -2.514179     -0.981009
H      -0.696567      0.178621     -1.563942
H      -1.566547      2.726560      0.491097
H      -2.309091      1.301142     -0.319851
H      -1.372566      1.089387      1.219068
H       1.288900     -1.222831      1.387973
H       2.058837     -1.628374     -0.158140
H       2.638272     -0.244111      0.792037
H       1.920256      1.772403      0.365756
