11
Extracted from Q-Chem output
C      -1.476826      0.272882      0.210558
O      -0.319174      0.107684      0.997759
C       0.703697     -0.590706      0.354056
C       1.341688      0.048226     -1.924671
C       1.438660      0.283259     -0.660048
H      -1.261638      0.823348     -0.712100
H      -2.188624      0.838840      0.808275
H      -1.915571     -0.697373     -0.052094
H       1.415849     -0.894729      1.121027
H       0.322888     -1.493006     -0.137487
H       2.022689      1.130576     -0.308250
