11
Extracted from Q-Chem output
C      -1.618480      0.227111      0.154888
O      -0.385255      0.190216      0.849170
C       0.607096     -0.520576      0.233106
C       0.885627      0.101916     -1.378453
C       1.900557      0.451710     -0.746854
H      -1.514951      0.750259     -0.797807
H      -2.318122      0.753358      0.800699
H      -1.988623     -0.786193     -0.035372
H       1.415752     -0.630589      0.961635
H       0.316749     -1.524137     -0.080968
H       2.783287      0.815931     -0.263018
