17
Extracted from Q-Chem output
C      -1.938365     -0.388522     -0.060511
C      -1.470990      0.916675     -0.654439
C      -0.487120     -0.064782     -0.112014
C       0.589397     -0.863023     -0.862244
C       1.510865     -0.666633      0.341906
C       1.687120      0.788637      0.635995
C       0.428480      0.110314      1.075937
H      -2.315773     -1.147925     -0.734640
H      -2.432789     -0.357718      0.902810
H      -1.535167      1.032556     -1.729450
H      -1.647494      1.824685     -0.091050
H       0.299622     -1.903935     -1.010529
H       0.946869     -0.449813     -1.808962
H       2.185139     -1.412171      0.740027
H       1.652108      1.514469     -0.170747
H       2.394380      1.020848      1.422585
H       0.133718      0.046340      2.115325
