17
Extracted from Q-Chem output
C      -2.002573     -0.242567     -0.099705
C      -1.305663      0.963246     -0.650785
C      -0.506174     -0.200631     -0.167389
C       0.446105     -0.970191     -0.996838
C       1.430418     -0.983933      0.063479
C       1.369230      1.151861      0.949057
C       0.558658     -0.042926      0.959575
H      -2.532755     -0.891213     -0.786843
H      -2.443456     -0.169838      0.886463
H      -1.362840      1.143307     -1.717059
H      -1.212295      1.852413     -0.032840
H       0.783586     -1.985194      0.020112
H       0.511373     -1.137841     -2.064830
H       2.506165     -1.118028      0.017665
H       1.581327      1.648586      0.010663
H       1.974989      1.403011      1.807991
H       0.307893     -0.422210      1.948421
