13
Extracted from Q-Chem output
C       2.192611      0.040427      0.008917
N      -0.083487     -0.287679     -1.324133
C      -0.146961     -0.083883     -0.082620
O       0.938051      0.117684      0.675116
C      -1.393002     -0.040932      0.777693
O      -2.578520     -0.065481      0.025474
H       2.261881      0.799996     -0.770644
H       2.945845      0.209395      0.774804
H       2.322075     -0.940627     -0.449794
H      -1.019128     -0.442540     -1.688443
H      -1.333558      0.832061      1.435883
H      -1.398322     -0.927013      1.415412
H      -2.722468      0.801751     -0.357733
