14
Extracted from Q-Chem output
C      -1.887029     -0.018993      0.059226
C      -1.312064      1.250036     -0.367891
C      -0.435422      0.301083      0.476946
C       0.568394     -0.396661     -0.246011
C       1.769144     -0.692178      0.531305
O       2.781779     -1.371051     -0.170739
H      -2.000386     -0.810563     -0.666435
H      -2.588314     -0.027249      0.882505
H      -1.601925      2.156584      0.145749
H      -1.012403      1.365450     -1.398888
H      -0.316121      0.596262      1.520790
H       2.429030     -1.516145     -1.053853
H       2.171426      0.252710      0.936101
H       1.464714     -1.285293      1.412287
