14
Extracted from Q-Chem output
C      -1.684526     -0.239407     -0.167176
C      -1.311419      1.191388     -0.201471
C      -0.390385      0.188496      0.483845
C       0.856705     -0.049363     -0.228410
C       2.054985     -0.353454      0.579144
O       1.583341     -1.646504      0.191935
H      -1.603628     -0.810877     -1.081650
H      -2.474926     -0.550646      0.502230
H      -1.829474      1.884238      0.447116
H      -0.960968      1.605599     -1.136596
H      -0.382616      0.217744      1.570242
H       1.148237     -1.247704     -0.796834
H       3.039431     -0.099321      0.188818
H       1.982079     -0.233007      1.659155
