12
smiles: [H:8][H:9].[O:1]=[C:2]=[C:3]1[C:4]([H:10])([H:11])[C@:5]1([C:6]#[N:7])[H:12]
O       -1.14784100      -0.58983300       2.59935300
C       -0.48999800      -0.19790800       1.73162900
C        0.23353200       0.26998200       0.77461900
C        1.54473600       0.55474300       0.18541300
C        0.29075000       0.59133700      -0.66594700
C        0.07561000      -0.45939600      -1.63469200
N       -0.09803600      -1.28727800      -2.40975400
H       -2.69811000      -0.70094200      -0.62027000
H       -3.09444000      -0.27010600      -0.16019800
H        2.22624000      -0.27254500       0.02545500
H        2.00819300       1.50913500       0.40683100
H       -0.07478300       1.56294200      -0.97980900
