12
Extracted from Q-Chem output
O      -1.337849     -0.703131      2.282238
C      -1.105150     -0.378165      1.169425
C      -0.298049      0.450985      0.404204
C       1.112968      0.793445      0.255464
C       0.291861      0.330609     -0.953541
C       0.562764     -0.969003     -1.515242
N       0.769081     -2.004508     -1.965419
H      -2.133606     -0.519101      0.295365
H      -1.887034      0.441392      0.233983
H       1.855717      0.102472      0.635432
H       1.397563      1.838089      0.271637
H       0.035491      1.082656     -1.690539
