19
Extracted from Q-Chem output
C       2.493486      0.304711     -0.837692
C       1.201196     -0.497203     -0.774323
C       0.318811     -0.128526      0.400259
C      -1.080298      1.519185      0.874214
C      -1.950766      0.284845      0.910511
C      -2.109758     -0.382607     -0.411209
C      -1.017498     -0.823561      0.528732
H       3.112862     -0.006558     -1.679904
H       3.081733      0.178577      0.074235
H       2.286299      1.371052     -0.954027
H       0.634442     -0.381220     -1.702098
H       1.421439     -1.568319     -0.685774
H       0.870192     -0.140983      1.339982
H       0.026583      1.037760      0.195966
H      -0.642961      1.641985      1.880509
H      -2.696299      0.188975      1.690454
H      -2.923522     -1.084868     -0.537300
H      -1.855088      0.191503     -1.295462
H      -1.050004     -1.835425      0.918679
