11
Extracted from Q-Chem output
C      -0.363147      0.841470      0.173102
C       1.006100      0.060751      0.056211
C       1.522617      0.716428     -1.120826
N      -1.145937     -0.175735     -0.581873
C      -1.050602     -0.282153      0.850671
C      -0.077109     -1.033056      0.042609
H      -0.592837      1.896542      0.153584
H       1.620683      0.108373      0.956009
H       0.940652      0.345153     -1.984160
H      -1.844564     -0.427320      1.562562
H      -0.029446     -2.094667     -0.156259
