12
Extracted from Q-Chem output
O       0.441319      2.105243      0.438651
C       0.150928      0.817646      0.165539
C      -0.991967      0.212693     -0.121854
C      -0.718851     -1.244370     -0.339354
O       0.682120     -1.401842     -0.126346
C       1.284039     -0.159636      0.169187
H      -1.971485      0.664161     -0.196508
H      -0.359855      2.632654      0.402876
H      -1.263313     -1.888161      0.361928
H      -0.969391     -1.573781     -1.355573
H       2.037133      0.096605     -0.586340
H       1.782790     -0.194966      1.145180
