12
Extracted from Q-Chem output
O       0.353579      2.107553      0.548926
C       0.314615      0.914998      0.096681
C      -0.960436      0.401276     -0.157595
C      -0.787154     -1.100468     -0.145439
O       0.635467     -1.316336     -0.281363
C       1.357740     -0.153087      0.056194
H      -1.552970      0.886946     -0.926760
H      -0.869812      1.645103      0.654605
H      -1.128514     -1.568392      0.784188
H      -1.274637     -1.601829     -0.982599
H       2.120304      0.064949     -0.697885
H       1.851628     -0.248764      1.030913
