12
Extracted from Q-Chem output
N      -1.667534      0.187622      0.505805
C      -0.236647      0.000435      0.468927
C       0.481851      1.229919     -0.060464
N       1.698998      1.118234     -0.439431
C       2.188627     -0.104822     -0.167619
N       1.516834     -1.090122     -0.786212
C       0.288034     -1.115783     -0.428040
H      -2.064974      0.231712     -0.423104
H      -2.130863     -0.551947      1.012898
H      -0.052617      2.169152     -0.156931
H       0.129225     -0.180116      1.492223
H      -0.383223     -1.880733     -0.809268
