11
Extracted from Q-Chem output
C      -1.806054      0.034499     -0.014603
C      -0.525776     -0.149271     -0.312626
O       0.007776     -0.340538     -1.541192
C       0.512601     -0.164190      0.762429
O       0.271457     -0.400998      1.917344
C       1.956757      0.224893      0.423856
O       2.228556      1.137706     -0.297554
H      -2.091535      0.161730      1.019063
H      -2.576660      0.066167     -0.775184
H      -0.674021     -0.265326     -2.212655
H       2.713662     -0.335007      1.005695
