9
Extracted from Q-Chem output
O      -2.032602     -0.474691     -0.665287
C      -0.800772     -0.244993     -0.289077
N       0.153313     -1.230404      0.006415
N       1.236985     -0.562666      0.212585
N       1.192367      0.764154      0.098119
C      -0.043857      1.005520     -0.247290
H      -1.345264     -0.245623      0.735727
H       2.075223     -1.013741      0.543326
H      -0.420412      2.005375     -0.389402
