8
Extracted from Q-Chem output
N       2.378105     -0.211423      0.919624
C       1.390169     -0.001487      0.376930
C       0.131973      0.278793     -0.303966
C      -0.794699     -0.842049     -0.601783
O      -0.994933      0.460299      0.594707
H       0.211300      1.167511     -0.928160
H      -1.484406     -0.445451     -1.360530
H      -0.850991     -0.068176      1.389680
