8
Extracted from Q-Chem output
N       2.482479     -0.196778      0.862951
C       1.460843      0.020501      0.391357
C       0.175643      0.310603     -0.236231
C      -0.834233     -0.761605     -0.386526
O      -0.881435      0.644367      0.663808
H       0.256479      1.076875     -1.001921
H      -1.525045     -0.494175     -1.192059
H      -1.143107     -0.380180      0.946419
