15
Extracted from Q-Chem output
C       1.939867     -0.649460      0.973175
C       0.800801     -0.614910      0.319772
C       0.042143     -0.902560     -0.905008
C      -0.608827     -0.238332      0.304962
O      -1.470101     -0.991776      1.106698
C      -0.994923      1.229002      0.239339
O      -0.108459      2.016355     -0.517954
H       2.835856     -1.064342      0.525755
H       2.011281     -0.281310      1.990465
H       0.762023      1.960794     -0.114623
H       0.213662     -0.290005     -1.783347
H      -0.221051     -1.938033     -1.091960
H      -2.300823     -1.101132      0.637134
H      -1.973263      1.322620     -0.240878
H      -1.091794      1.597464      1.268366
