15
Extracted from Q-Chem output
C       1.857819     -0.155351      0.836361
C       0.679527     -0.336344      0.125833
C      -0.134381     -0.864364     -0.972732
C      -0.790902     -0.270132      0.274849
O      -1.457436     -1.084235      1.171285
C      -0.959337      1.229465      0.207150
O       0.329164      1.577817     -0.250433
H       2.801194     -0.429154      0.380490
H       1.794136     -0.198503      1.918032
H       1.367231      1.037805      0.496139
H      -0.167994     -0.378787     -1.938100
H      -0.142889     -1.951208     -0.980365
H      -2.300272     -1.339572      0.790044
H      -1.734602      1.544393     -0.502325
H      -1.204576      1.640194      1.195212
