16
Extracted from Q-Chem output
C       1.772887      0.542414      0.519595
C       1.101679     -0.644050      0.220334
C      -0.778173     -0.408307     -0.695221
C      -1.722569     -1.197314      0.182011
C      -0.830251      0.950383     -0.736951
C      -0.237133      2.023222     -0.460918
H       2.614323      0.838568     -0.097462
H       0.836745      1.557694      0.079404
H       1.827451      0.863241      1.554331
H       1.465826     -1.252041     -0.598617
H       0.667708     -1.205105      1.038658
H      -0.545562     -0.887994     -1.643767
H      -1.850620     -0.712892      1.150852
H      -2.705118     -1.282950     -0.286715
H      -1.345611     -2.208726      0.343542
H      -0.339512      3.087990     -0.559415
