11
Extracted from Q-Chem output
O      -2.015017      0.671710      0.692093
C      -0.833084      0.917008      0.240566
C       0.010862     -0.040570     -0.291725
C      -0.099089     -1.306710      0.833874
O      -0.498819     -1.315523     -0.528117
C       1.343955      0.286795     -0.824426
O       1.812883      1.395054     -0.822275
H      -0.517780      1.954999      0.297547
H       0.968745     -1.624233      0.842894
H      -2.095931     -0.301614      0.783575
H       1.876117     -0.589442     -1.241000
