15
Extracted from Q-Chem output
C       1.032642     -0.266829      1.365353
C       0.357299      0.470772     -1.802081
C       0.073580     -0.722232     -0.928858
C      -0.206049     -0.203643      0.490902
O      -1.219475     -0.903362      1.188230
C      -0.602905      1.242217      0.178162
O      -0.032761      1.516483     -1.134439
H       1.854985      0.285715      0.906453
H       1.341951     -1.303664      1.500036
H       0.824056      0.162030      2.346486
H      -0.817828     -1.187653     -1.373174
H       0.868177     -1.465884     -0.995961
H      -1.984622     -1.007542      0.618375
H      -1.685570      1.363505      0.100687
H      -0.205870      1.984868      0.868027
