11
Extracted from Q-Chem output
C      -1.737955      0.145430      0.689984
C      -0.548194      0.177169      0.110566
O      -0.000004      1.343314     -0.368787
N       0.335501     -0.876705     -0.168286
C       1.413855     -0.250132     -0.894213
O       1.406469      1.094683     -0.449701
H       1.219653     -0.284271     -1.970533
H      -2.259197      1.062972      0.915139
H      -2.200221     -0.803096      0.915832
H       0.629473     -1.352142      0.671463
H       2.388858     -0.672848     -0.658132
