14
Extracted from Q-Chem output
O       0.178877     -0.688177      1.183477
C      -0.662685     -0.148459      0.135667
C      -0.691428      1.361331      0.271188
O       0.582385      1.938722      0.118590
C       1.090414     -1.467951      0.557531
N       1.080025     -1.552918     -0.696648
C      -0.006577     -0.683421     -1.152702
H       1.144588      1.602075      0.820500
H      -1.668961     -0.548019      0.288749
H      -1.323936      1.775985     -0.516948
H      -1.137621      1.631194      1.235946
H       1.782091     -1.976105      1.218912
H       0.408818      0.124494     -1.758697
H      -0.702550     -1.251948     -1.770081
