12
smiles: [C:3]([O:4][H:12])(=[C:5]=[N:6][H:7])[H:11].[N:1](=[C:2]([H:9])[H:10])[H:8]
N       -1.91274400       0.18057400      -0.83889400
C       -1.60890700      -1.00691000      -0.54488500
C        1.92617600       0.21336900       0.90701700
O        2.45300100      -1.01279100       0.54930400
C        1.24478300       0.93524300       0.05187600
N        0.68536000       1.67029000      -0.74691900
H       -0.31135100       1.49461100      -0.85919400
H       -2.92048900       0.28250700      -0.95247700
H       -0.55902900      -1.25965500      -0.39269600
H       -2.32995100      -1.82191600      -0.42548000
H        1.99761100       0.53266500       1.94094500
H        3.41072400      -0.95324600       0.56739600
