11
Extracted from Q-Chem output
O       2.615286     -0.422897      0.225892
C       1.511177     -0.324856     -0.235759
C       0.306443      0.057985      0.523696
C      -0.746813      0.861251     -0.204098
C      -1.005277     -0.565409      0.106691
H       1.327628     -0.527913     -1.315981
H       0.471323      0.257182      1.574244
H      -1.257145      1.623026      0.368497
H      -0.543269      1.130054     -1.233322
H      -1.698912     -0.810583      0.898714
H      -0.980440     -1.277841     -0.708574
