11
Extracted from Q-Chem output
O       1.956397      0.366412      0.069309
C       1.435407     -0.440903     -0.822040
C       0.382841      0.133971      0.430316
C      -0.749264      0.951075     -0.037924
C      -0.935093     -0.541598     -0.007089
H       1.831321     -1.479858     -0.663296
H       0.549657      0.026005      1.494164
H      -1.258242      1.553248      0.703829
H      -0.653576      1.401752     -1.014503
H      -1.505028     -0.977582      0.805926
H      -0.968176     -1.068559     -0.945566
