11
Extracted from Q-Chem output
C      -0.166877     -1.296610      0.060067
O      -0.743683     -0.769232     -1.084128
C      -0.741062      1.197611      0.092510
C       0.626846      0.992365      0.119286
C       0.970170     -0.342788      0.046426
H      -0.788909     -1.247639      0.971204
H       0.147651     -2.342114     -0.057953
H      -1.448718      0.563959      0.603704
H      -1.145770      2.116976     -0.318473
H       1.315431      1.772835     -0.175016
H       1.964500     -0.652500     -0.257168
