18
smiles: [C:1]([C:2]([C:3]([C:4]([C:5]([H:15])([H:16])[H:17])([H:12])[H:14])=[O:6])([H:10])[H:11])([H:7])([H:8])[H:9].[H:13][H:18]
C        2.17592100      -0.87818100      -1.06923100
C        1.17698200      -0.85693700       0.07332100
C        0.22478300       0.32218400       0.02903800
C       -0.79714500       0.40082300       1.14623700
C       -1.73343700       1.59039800       1.03881400
O        0.27779600       1.15068500      -0.84535500
H        1.66540700      -0.91699200      -2.03159400
H        2.83308000      -1.74533700      -0.99138600
H        2.78987200       0.02260200      -1.06639600
H        1.68498000      -0.83568400       1.04367800
H        0.57214600      -1.77021000       0.08691500
H       -0.24766900       0.41403300       2.09398700
H       -1.89289800      -1.36516900      -1.85248200
H       -1.35400400      -0.54251300       1.15211400
H       -1.17648500       2.52732800       1.04978100
H       -2.44094200       1.59955200       1.86903600
H       -2.29618900       1.56085300       0.10562000
H       -1.55705800      -0.70260900      -1.90373200
