13
Extracted from Q-Chem output
O      -2.253777     -0.257886      0.381976
C      -1.095825     -0.018787      0.757489
C       0.295299     -0.968804     -0.491660
O      -0.580044      0.003134     -1.370834
C      -0.262786      0.863196     -0.185888
C       1.122203      0.237677     -0.129233
O       1.794188      0.218375      1.091803
H      -1.543883     -0.234693     -1.131290
H      -0.790879     -0.129571      1.802615
H       0.645959     -1.790498     -1.116469
H      -0.517103      1.910251     -0.351083
H       1.805575      0.634743     -0.884139
H       1.414733     -0.480172      1.631575
