17
Extracted from Q-Chem output
C       1.354568     -0.412335      1.112295
C       1.743192      0.615801      0.110894
C       1.252085     -0.763270     -0.337482
C      -0.084124     -0.448891     -0.965955
C      -1.373125     -0.694933     -0.142117
C      -1.342910      0.788926      0.325329
C      -0.156320      1.030793     -0.601984
H       2.220032     -0.818056      1.625313
H       0.479707     -0.341164      1.747233
H       1.073177      1.545696     -0.156805
H       1.932790     -1.488367     -0.768822
H      -0.129911     -0.711437     -2.022003
H      -1.289959     -1.443802      0.646612
H      -2.239137     -0.930913     -0.760697
H      -2.224710      1.381385      0.076991
H      -1.138518      0.930750      1.388176
H      -0.194590      1.810794     -1.360393
