7
Extracted from Q-Chem output
O       1.049150      1.125097     -0.054042
C       1.138211     -0.085984     -0.009853
N       0.050372     -0.952528      0.017042
C      -0.942336     -0.125487     -0.017230
N      -1.317629      1.039494     -0.061342
H       2.104605     -0.598060      0.012158
H      -2.114481     -0.252984     -0.017980
