11
Extracted from Q-Chem output
N       2.005993      0.194169      0.269591
C       0.661214     -0.020682      0.105310
N       0.088854     -1.229146      0.074089
N      -1.273008     -1.106202     -0.033530
C      -1.403148      0.190251     -0.063185
O      -2.599832      0.771707     -0.170826
N      -0.257303      0.917919      0.011487
H       2.618117     -0.470788     -0.171815
H       2.267641      1.150195      0.095007
H       0.500115     -2.134460      0.201081
H      -2.454784      1.721610     -0.169948
