15
Extracted from Q-Chem output
C       2.869976     -0.238758      0.171881
N       1.456303      0.028392      0.101835
C       0.668115     -0.966480      0.076876
C      -0.770663     -0.846720     -0.018863
C      -1.349769      0.352084     -0.201479
N      -2.772217      0.766243     -0.216308
C      -1.546765      1.662937     -0.434821
H       3.111799     -1.311869      0.206216
H       3.369810      0.200903     -0.695297
H       3.292906      0.240157      1.059073
H       1.058551     -1.994897      0.122962
H      -1.384961     -1.735536      0.017276
H      -3.250074      0.691357      0.674223
H      -3.352930      0.576568     -1.020301
H      -1.397583      2.519370      0.203197
