13
Extracted from Q-Chem output
C      -1.980908     -0.763421      0.768355
C      -0.616058     -0.449346      0.266363
N      -0.130002      0.766085      0.323312
C       1.061063      1.274798     -0.070651
C       2.012188      0.435770     -0.651450
C       2.797218     -0.336176     -1.147578
H      -2.460736      0.119971      1.197791
H      -2.631626     -1.134409     -0.029286
H      -1.956348     -1.532682      1.545541
H       0.022680     -1.205759     -0.167380
H      -0.748591      1.454264      0.733176
H       1.218372      2.326342      0.095803
H       3.502806     -0.999330     -1.587117
