21
Extracted from Q-Chem output
C       0.085135      1.765697     -0.716643
C      -0.740874      1.422588      0.323719
C      -1.659728      0.212533      0.218225
C      -1.015509     -1.029855     -0.415819
C       0.176448     -1.643443      0.334744
C       1.386811     -0.727582      0.458369
C       1.801187      0.026815     -0.609813
H       0.623054      2.705731     -0.698387
H      -0.030199      1.311264     -1.687358
H      -1.028770      2.189921      1.037773
H       0.147035      0.855453      1.359781
H      -2.023703     -0.048130      1.216443
H      -2.544992      0.480827     -0.368669
H      -1.788040     -1.799447     -0.500137
H      -0.725939     -0.807299     -1.447059
H      -0.150197     -1.942646      1.335090
H       0.472473     -2.565461     -0.177218
H       0.763544      0.227178      1.400794
H       2.105884     -0.973906      1.235288
H       2.744615      0.557213     -0.571000
H       1.403740     -0.149620     -1.596468
