14
Extracted from Q-Chem output
O       0.835621      0.387816      1.426733
C       0.722852      0.617185      0.090112
C       1.496226      1.469041     -0.578881
C      -0.351919     -0.184642     -0.529723
C      -1.618820     -0.477126      0.228442
C      -0.644322     -1.576699     -0.037237
H       1.545126      0.928461      1.780155
H       2.276308      2.038700     -0.087460
H       1.359922      1.612713     -1.640418
H      -0.452614     -0.015874     -1.593587
H      -1.683410     -0.101594      1.240390
H      -2.545114     -0.457923     -0.329908
H      -0.058397     -1.936260      0.797314
H      -0.892233     -2.322020     -0.780951
