16
Extracted from Q-Chem output
C       1.689298      0.747141      0.079598
C       1.131569     -0.442153      0.763786
C      -0.380233     -0.360092      1.000647
C      -0.931076     -1.199428     -0.188796
C      -0.471744      0.044104     -0.986199
C      -0.948842      0.854525      0.231516
N       1.010365     -0.067070     -0.943219
H       2.763591      0.780201     -0.073577
H       1.263436      1.729976      0.219211
H       1.316617     -1.082766     -0.443460
H      -0.676338     -0.585589      2.022922
H      -0.436639     -2.146303     -0.411999
H      -2.013350     -1.324207     -0.172715
H      -0.811476      0.250637     -1.999415
H      -0.580366      1.861843      0.411126
H      -2.036887      0.868747      0.259182
