11
Extracted from Q-Chem output
N       1.752333     -0.348528      0.452450
C       2.317784     -0.722465      1.399862
C       1.016499      0.103167     -0.683190
O      -0.151439     -0.633576     -0.871179
C      -1.114592     -0.492540      0.143610
C      -1.636793      0.882371      0.228050
N      -2.016733      1.962383      0.285735
H       1.620759     -0.042106     -1.576175
H       0.807798      1.169465     -0.546203
H      -1.930260     -1.169038     -0.106509
H      -0.716105     -0.777830      1.123028
