14
Extracted from Q-Chem output
C      -2.225784     -0.166244      0.621980
C      -1.059285     -0.124238     -0.335386
O       0.103095      0.241372      0.405940
C       1.233753      0.364137     -0.375845
O       1.275800      1.078874     -1.432764
C       2.521914      0.616248      0.291651
H      -2.049316     -0.892658      1.416457
H      -2.380142      0.812259      1.078312
H      -3.136409     -0.448239      0.090902
H      -0.898423     -1.105622     -0.801044
H      -1.228304      0.603290     -1.132425
H       3.110769     -0.206478      0.684989
H       3.034698      1.535571      0.029164
H       1.642466     -0.699981     -0.643226
