12
Extracted from Q-Chem output
C       2.086553     -1.215396      0.673302
C       0.989322     -0.604126      0.333582
C      -0.102628     -0.000652     -0.005407
C      -1.153314     -0.155413     -1.080519
O      -1.869442      0.974937     -0.556446
C      -0.905642      1.179816      0.489718
H       3.045452     -0.914282      0.266191
H       2.074325     -2.043063      1.373761
H      -0.809454      0.013416     -2.105150
H      -1.742795     -1.075701     -1.035428
H      -1.346971      1.068353      1.484368
H      -0.411256      2.152427      0.411554
