9
Extracted from Q-Chem output
O      -2.119639     -0.596627     -0.046383
C      -0.850039     -0.184377     -0.046073
N       0.151609     -1.008289      0.064535
N       1.261636     -0.257792     -0.070974
N       0.828482      1.063348     -0.099637
C      -0.471597      1.215357     -0.175494
H      -2.127908     -1.554620      0.045707
H       1.999541     -0.472424      0.587808
H       1.522526      1.781368     -0.233070
