9
Extracted from Q-Chem output
O       1.481014      0.190233      1.092087
C       1.539430      0.169884     -0.096516
O       0.534598     -0.186957     -0.922226
C      -0.685845     -0.535818     -0.298795
C      -2.118479      1.554913      0.181338
N      -1.465320      0.614928     -0.034126
H       2.417755      0.429842     -0.699504
H      -1.216421     -1.170579     -1.004599
H      -0.502671     -1.060542      0.638270
