13
Extracted from Q-Chem output
C       2.389234      0.006988      0.634442
C       0.259952     -0.000183     -0.615973
C       1.418505     -0.534775     -0.378193
N      -1.979475     -0.089214      1.036500
C      -1.978567      0.250524     -0.171519
O      -3.076810      0.426456     -0.927685
N      -0.799721      0.546698     -0.902046
H       2.587876     -0.736264      1.408429
H       1.994085      0.899781      1.116506
H       3.339005      0.262225      0.160495
H       1.665843     -1.432170     -0.934449
H      -2.929896     -0.208202      1.374139
H      -2.799393      0.751131     -1.790517
