11
Extracted from Q-Chem output
N       2.204016      0.306223     -0.059943
C       0.920429      0.189997      0.204674
N       0.586378     -1.081784     -0.092266
N      -0.763981     -0.982159     -0.440392
C      -1.141666      0.230152      0.031631
O      -2.426590      0.544881      0.041338
N      -0.164214      1.000134      0.426113
H       2.775330      0.970437      0.439650
H       1.808497     -0.996311     -0.491283
H      -1.349019     -1.796194     -0.349389
H      -2.501863      1.443042      0.382644
