15
Extracted from Q-Chem output
C       2.999773      0.507359     -0.074679
C       1.716558     -0.031873      0.334362
C       0.647152     -0.483826      0.668332
C      -0.582050     -1.001203      1.061867
C      -1.830618     -0.812934      0.343535
O      -2.918557     -1.386604      0.678271
C      -1.985020      0.810528      0.279536
H       3.764202      0.317187      0.678902
H       2.923145      1.584805     -0.232252
H       3.316986      0.054146     -1.016001
H      -0.609206     -1.591213      1.977335
H      -1.498409     -0.962092     -0.731529
H      -2.835644      0.958318     -0.379371
H      -2.231649      1.152545      1.281715
H      -1.094014      1.306760     -0.100526
