13
Extracted from Q-Chem output
C      -1.420749      0.309571      0.382057
C      -0.015900      0.131612     -0.142523
C       0.521487     -1.292462      0.015965
C       0.907569      1.188777     -0.036923
O       1.761856      1.182079     -0.989922
H      -2.124743     -0.260681     -0.228294
H      -1.523721     -0.053398      1.411683
H      -1.743359      1.351795      0.353769
H       0.840601      0.375861     -1.351509
H       1.565719     -1.384766     -0.282862
H      -0.061515     -1.987379     -0.591595
H       0.434503     -1.619199      1.059246
H       0.921332      2.018157      0.677239
