14
smiles: [C-:4]([O+:5]=[C:6]([H:13])[H:14])([H:11])[H:12].[C:1]([N:2]=[C:3]=[O:7])([H:8])([H:9])[H:10]
C        1.87331600      -0.14000000      -0.97704300
N        1.72688800      -0.55397000       0.38867700
C        0.87931700      -0.71827300       1.21261400
C       -1.27219000       1.45753100      -0.01711200
O       -1.42835100       0.55889800      -0.93080800
C       -1.72601800      -0.69365700      -0.83269300
O        0.13714900      -0.91354800       2.09288600
H        1.62638200       0.91694400      -1.08938000
H        2.90769900      -0.28639100      -1.28194800
H        1.23064100      -0.72754600      -1.63449800
H       -1.02118700       2.43991500      -0.37628000
H       -1.39581400       1.18904200       1.02369000
H       -1.79167200      -1.22459700      -1.76586400
H       -1.87911700      -1.13190500       0.14464400
