13
Extracted from Q-Chem output
C      -1.188222     -0.970623     -0.374856
C      -0.076527     -0.201517      0.290836
O       0.122788     -0.681736      1.570752
C      -0.051477      1.306359      0.052382
O       0.281824      1.322591     -1.206984
C       1.223625      0.162595     -0.458355
O       1.759582      0.989346      0.421130
H      -2.105935     -0.876067      0.207039
H      -0.918613     -2.026668     -0.403624
H      -1.365177     -0.618534     -1.388719
H       0.905129     -0.225496      1.908487
H      -0.476889      2.168500      0.570919
H       1.821705     -0.406017     -1.175231
