13
Extracted from Q-Chem output
N       0.737507     -0.900148      1.258902
C       1.448013     -0.629185      0.313439
C       1.055811      0.330906     -0.774692
C      -0.323954      0.908564     -0.673277
C       0.070868     -1.269722      2.274652
C      -1.272773      0.742898     -1.580671
H       1.195555     -0.185413     -1.727407
H       1.813037      1.121421     -0.762500
H      -0.538833      1.483851      0.223767
H       0.169268     -0.725666      3.204535
H      -0.572085     -2.136595      2.201296
H      -1.098409      0.169119     -2.485359
H      -2.257857      1.176281     -1.457075
