16
smiles: [C:1](=[C:2]([H:10])[H:11])([H:7])[H:8].[C:3]([O:4][H:12])([C:5]([H:9])([H:13])[H:14])=[C:6]([H:15])[H:16]
C        2.98045100       0.00639400      -0.25439300
C        2.16298900      -0.68690300      -1.02801000
C       -1.54863300      -0.05789100       0.47495300
O       -0.83671300      -1.15403200       0.85437500
C       -0.80360500       1.19495400       0.79165300
C       -2.74603800      -0.11682800      -0.09963100
H        3.89876900       0.43591600      -0.63837200
H        2.76600000       0.17377900       0.79503700
H        0.15907600       1.19725700       0.27667700
H        1.24457600      -1.11629200      -0.64411300
H        2.37739500      -0.85412500      -2.07747700
H       -1.33576100      -1.94595000       0.63970800
H       -0.60314600       1.24983100       1.86353000
H       -1.37151900       2.07246900       0.48997100
H       -3.23617800      -1.06221300      -0.30305300
H       -3.26380500       0.78800600      -0.38074600
