13
smiles: [H:7][H:10].[O:1]=[N:2][C:3]12[C:4]([H:8])([H:9])[C:5]1([H:11])[C:6]2([H:12])[H:13]
O        2.14390100      -0.08404800      -0.78986100
N        1.47564500       0.78391200      -0.28819500
C        0.51362400       0.32957900       0.63358500
C       -0.17501200      -0.99235000       0.70259200
C       -0.92907300       0.19643600       0.21726300
C       -0.54579000       1.20276000       1.23049800
H        0.44841700      -1.03005200      -2.76063800
H        0.11879700      -1.72290800      -0.04254200
H       -0.40327700      -1.39769500       1.68478900
H       -0.17731400      -1.31007000      -3.05123500
H       -1.28304700       0.37909000      -0.78477400
H       -0.54949300       2.24084600       0.91698500
H       -0.79484400       1.03004900       2.27409000
