12
smiles: [C:5]=[N:6][H:8].[N:1](=[C:2](/[C:3]([O:4][H:12])([H:10])[H:11])[H:9])\[H:7]
N        0.87781000       0.27656100       0.96189500
C       -0.27906100      -0.20672900       1.11042200
C       -1.08320800      -0.67729100      -0.06801400
O       -2.39601000      -0.15259700      -0.04329500
C        2.56989500       0.76101000      -2.59080600
N        2.14105100       0.60648400      -1.52143900
H        1.28361400       0.54174700       1.85710800
H        1.77236300       0.47390100      -0.60555900
H       -0.78105100      -0.30137000       2.08163000
H       -0.54641700      -0.42775500      -0.98840900
H       -1.19216200      -1.76398200      -0.01901700
H       -2.34837600       0.79133000      -0.20651200
