14
Extracted from Q-Chem output
C       1.095372     -0.545899      1.256792
C       1.236793     -0.581544     -0.267610
C      -0.305283     -0.642724     -0.256914
O      -0.337451     -0.541064      1.173257
C      -1.662691      1.444933     -0.360637
C      -1.033536      0.450446     -0.964300
H       1.463508     -1.432213      1.780832
H       1.475062      0.350147      1.753576
H       1.740782     -1.452917     -0.680079
H       1.642289      0.325570     -0.711507
H      -0.699628     -1.613532     -0.582738
H      -2.175542      2.212331     -0.926676
H      -1.685683      1.508825      0.720626
H      -1.019401      0.382308     -2.050037
