12
Extracted from Q-Chem output
O       2.104078     -0.300828     -0.113431
C       0.742240     -0.556431     -0.179174
C       0.001312     -0.543137      1.090925
C      -0.220668      0.584970      0.099279
O      -2.007530      1.646275     -1.045508
C      -1.481250      0.637079     -0.659501
H       2.376067      0.140433     -0.920952
H       0.440794     -1.279943     -0.933000
H      -0.796167     -1.261132      1.233746
H       0.558882     -0.282932      1.979842
H       0.225260      1.543146      0.332862
H      -1.939617     -0.355047     -0.873444
