10
Extracted from Q-Chem output
O      -2.105070      0.099591      0.589896
C      -0.775200      0.113274      0.424621
C       0.171897      1.040584      0.800150
C       1.318141      0.393433      0.292920
N       1.063718     -0.883142     -0.351509
N      -0.242108     -0.951144     -0.242075
H      -2.320241      0.913873      1.057037
H       1.312456      0.306821     -0.947008
H       2.364162      0.586254      0.501154
H      -0.742825     -1.674668     -0.735596
