14
smiles: [C:2](=[C:3]([O:4][H:11])[C:5]([O:6][H:14])([H:12])[H:13])([H:8])[H:9].[O:1]([H:7])[H:10]
O        1.10754600       2.67886100      -0.64214600
C        1.27759700      -0.68630800       0.28325300
C       -0.01880700      -0.59973400       0.01687900
O       -0.62887000       0.49235600      -0.52378000
C       -1.02577400      -1.68721900       0.24640300
O       -2.09534900      -1.26577300       1.06360000
H        1.12508400       3.24915000       0.12733200
H        1.68099900      -1.58152400       0.73277200
H        1.96657100       0.12074500       0.06154600
H        1.11239400       3.26884500      -1.39681300
H        0.00314600       1.20934600      -0.61246900
H       -1.39307900      -2.03429100      -0.72923600
H       -0.54882800      -2.52790900       0.74752400
H       -2.45530100      -0.46145300       0.68181800
