11
Extracted from Q-Chem output
C      -1.517913     -0.029083      0.145073
N      -0.110709     -0.244540     -0.104910
C       1.007081      0.631966      0.188523
C       2.185685     -0.146614     -0.290587
N       1.652455     -1.294516     -0.767885
N       0.317237     -1.309668     -0.639815
H      -2.062655     -0.899257     -0.211839
H      -1.687898      0.102266      1.214158
H      -1.856061      0.862851     -0.382919
H       0.911272      1.582880     -0.342268
H       1.072963      0.837503      1.260401
