11
Extracted from Q-Chem output
C      -1.552541     -0.004753      0.084081
N      -0.135138     -0.198053     -0.121442
C       0.913624      0.696614      0.002403
C       2.130782     -0.010449     -0.341130
N       1.639661     -1.314546     -0.524111
N       0.357580     -1.374314     -0.435342
H      -2.054916     -0.921590     -0.213899
H      -1.764616      0.202224      1.133504
H      -1.910412      0.821522     -0.529707
H       0.734253      1.762017      0.028101
H       1.598595      0.422214      0.944878
