9
Extracted from Q-Chem output
O      -0.710129      2.260354     -0.692591
C      -0.071919      1.288722     -0.414344
C       1.008535     -1.170908      0.888055
O       0.250509     -1.110757     -0.159949
C      -0.722369     -0.055591     -0.160392
H       1.685000     -2.020873      0.651225
H       1.030804      1.310135     -0.304196
H      -1.444470     -0.278382     -0.944320
H      -1.218287     -0.025404      0.810667
