9
Extracted from Q-Chem output
O       0.112211      1.995968      0.443741
C       0.225517      0.902926     -0.111034
C       0.941047     -0.582303      0.511756
O      -0.046803     -1.272233      0.101779
C      -0.936039     -0.147400     -0.246059
H       1.794467     -1.189435      0.849673
H       0.842378      0.808206     -1.057005
H      -1.378011     -0.316053     -1.227387
H      -1.685633     -0.050344      0.534437
