13
Extracted from Q-Chem output
N       1.819249      0.914712     -0.020500
C       0.514328      0.403579     -0.087398
C      -0.013507     -0.847377      0.058424
O       0.756192     -1.936798      0.280362
C      -1.430057     -0.776615     -0.020891
C      -1.875416      0.493424     -0.326458
N      -0.582780      1.243311     -0.256518
H       2.380165      0.653314     -0.819031
H       2.302160      0.627572      0.819102
H       0.192715     -2.707174      0.371936
H      -2.097051     -1.616759      0.124778
H      -1.389478      1.404489      0.597054
H      -0.497458      2.133740     -0.725207
