14
Extracted from Q-Chem output
C       1.393072     -0.999653      0.408425
C       0.341562     -0.066168      0.027154
C       0.405949      0.719865     -1.209703
O      -0.744243      0.670396     -1.867417
C      -0.843111      0.065010      0.953024
O      -0.609548     -0.008619      2.149225
N      -2.012985      0.304871      0.363133
H       1.386241     -1.208471      1.475837
H       1.166478     -1.935697     -0.125606
H       2.367691     -0.669209      0.039633
H       0.753697      1.732271     -0.833474
H       1.292064      0.380765     -1.790913
H      -2.799981      0.538534      0.944535
H      -1.954644      0.487363     -0.652030
