15
Extracted from Q-Chem output
N       2.000478     -0.499184      0.004970
C       0.579256     -0.354482      0.268023
C       0.143501      1.070962      0.393639
N       0.612705      2.217406      0.258822
C      -0.232095     -1.021531     -0.812915
C      -0.850116      2.085124      0.664739
C      -1.209905     -1.882292     -0.593012
H       2.538362     -0.026752      0.720521
H       2.239166     -0.054042     -0.873154
H       0.346820     -0.844173      1.218988
H       0.026859     -0.737549     -1.830461
H      -1.096889      2.357941      1.686532
H      -1.588738      2.349287     -0.085880
H      -1.766790     -2.322721     -1.410533
H      -1.488147     -2.182136      0.411636
