15
Extracted from Q-Chem output
N       2.084495     -0.531521     -0.235332
C       0.826149     -0.194059      0.347990
C       0.397669      1.277066      0.556775
N       0.715232      2.397065      0.871082
C      -0.414851     -0.460072     -0.544848
C      -1.051093      1.184673      0.081478
C      -1.364492     -1.401440     -0.261897
H       2.789668     -0.750652      0.450064
H       2.432364      0.201626     -0.836578
H       0.706693     -0.729608      1.294372
H      -0.238256     -0.240351     -1.596586
H      -1.780004      1.077157      0.884313
H      -1.384023      1.835938     -0.723607
H      -2.026761     -1.794159     -1.023269
H      -1.505991     -1.759374      0.752183
