14
Extracted from Q-Chem output
C       2.256030      1.017134     -0.041057
C       1.549657     -0.189109      0.434173
C       0.292119     -0.438736      0.459913
C      -0.905156     -0.953264      0.964435
C      -0.984477      0.160982     -0.580115
C      -1.882587     -0.965776     -0.161096
H       3.218102      0.785661     -0.500567
H       2.472713      1.643496      0.830939
H       1.666648      1.631539     -0.737705
H      -1.210114     -0.763108      1.993079
H      -1.306870      1.146461     -0.268520
H      -0.516240      0.140092     -1.559662
H      -2.900321     -0.695442      0.107264
H      -1.860039     -1.838311     -0.810221
