13
Extracted from Q-Chem output
C      -1.572078     -0.691969      0.011998
C      -0.240523     -0.068056      0.221515
C       0.188036      1.331130      0.034233
C       0.927628      0.202447     -0.684244
C       1.708624     -0.539355      0.354698
O       2.803471     -0.961513      0.503293
O       0.636229     -0.675248      1.211618
H      -2.192725     -0.567465      0.900873
H      -1.469424     -1.757639     -0.194565
H      -2.078091     -0.216302     -0.828491
H       0.671247      1.862496      0.844776
H      -0.427263      1.936642     -0.620935
H       1.044867      0.144832     -1.754770
