17
smiles: [C:1]1([H:8])([H:9])[C@@:2]2([H:10])[C@:3]1([H:11])[C@@:4]1([H:12])[C:5]([H:13])([H:14])[C:6]([H:15])=[C:7]21.[H:16][H:17]
C        0.82360500      -0.58444200       1.29170200
C        1.74289000      -0.06271800       0.22426800
C        0.91161200      -1.34307900       0.00271200
C        0.18745300      -0.68973600      -1.21024800
C       -1.15322500       0.11415500      -1.26063800
C       -0.30386000       1.32580300      -0.86484400
C        0.81201200       0.58407900      -0.78575300
H        1.30705200      -1.07532700       2.12859600
H       -0.06190500      -0.01915700       1.55712300
H        2.80849300       0.05259600       0.36225900
H        1.27088100      -2.36401300      -0.00096200
H        0.51655700      -1.14052800      -2.14620100
H       -1.84728200      -0.15516600      -0.45954000
H       -1.69186900       0.11257700      -2.21136400
H       -0.57861900       2.31583600      -0.51984700
H       -2.51062500       1.39905200       1.64151400
H       -2.23071600       1.68783300       2.26821500
