17
Extracted from Q-Chem output
C       1.268224     -0.458174      1.076065
C       1.214072      0.669564      0.101671
C       1.256035     -0.769971     -0.388897
C      -0.133672     -0.620736     -1.025445
C      -1.413820     -0.907348     -0.156084
C      -1.443420      0.590642      0.120658
C      -0.201498      0.853199     -0.485906
H       2.229364     -0.591462      1.557635
H       0.424244     -0.672519      1.720120
H       1.979129      1.432975      0.053149
H       2.082786     -1.290286     -0.852746
H      -0.213461     -0.876023     -2.078818
H      -1.201902     -1.566315      0.686124
H      -2.292501     -1.287299     -0.680361
H      -2.316246      1.222207      0.063940
H      -0.861133      2.213544      0.694858
H      -0.370103      2.122775     -0.407216
