15
Extracted from Q-Chem output
C      -1.847054     -0.870089      0.181648
C      -0.854193      0.097856     -0.401187
C      -0.812367      1.514711      0.043674
N       0.275863      0.490860      0.469840
C       1.631417      0.486372     -0.057214
C       2.242782     -0.845839      0.002965
N       2.700421     -1.894806      0.067005
H      -2.141007     -0.549132      1.182274
H      -1.460949     -1.891961      0.214799
H      -2.746262     -0.864926     -0.436681
H      -0.476283     -0.210631     -1.379256
H      -0.316597      2.127685     -0.719758
H       0.212210      0.207744      1.437793
H       1.596545      0.827811     -1.092000
H       2.243957      1.191992      0.507311
