15
Extracted from Q-Chem output
C      -1.902293     -0.892281      0.156478
C      -0.839410      0.057544     -0.322527
C      -0.802427      1.470014      0.124980
N       0.319179      0.219845      0.558499
C       1.631322      0.380632     -0.039203
C       2.356294     -0.896319     -0.043772
N       2.922194     -1.892695     -0.061836
H      -2.171418     -0.664697      1.187748
H      -1.561279     -1.927475      0.094881
H      -2.796327     -0.784021     -0.460472
H      -0.503886     -0.140499     -1.340167
H      -0.229231      2.079731     -0.584289
H      -0.062361      1.024309      1.251034
H       1.571124      0.750618     -1.068871
H       2.210399      1.104353      0.537574
