13
Extracted from Q-Chem output
N      -1.061866     -1.330091     -0.900305
C      -1.032789     -0.072454     -0.826799
O      -1.936922      0.659510     -1.511386
C      -0.104789      0.818907     -0.043574
C       1.220448      0.188502      0.328750
O       0.991172     -0.841384      1.276547
H      -2.517108      0.025178     -1.950150
H      -0.358357     -1.744529     -0.298338
H      -0.624794      1.140860      0.863183
H       0.076671      1.718387     -0.635242
H       1.706360     -0.212398     -0.569730
H       1.873715      0.960830      0.750257
H       1.828944     -1.242804      1.511048
