13
Extracted from Q-Chem output
C       0.584990     -1.226053      0.147169
C       1.097468     -0.281511     -0.942770
C       0.309441      0.872723     -0.767817
C      -0.343636      1.031144      0.756934
N      -1.073903      0.451290     -0.376659
C      -0.583280     -0.430027      0.714610
H       1.307167     -1.410884      0.953638
H       0.237480     -2.201411     -0.209534
H       2.165982     -0.132737     -1.045468
H       0.366915      1.796446     -1.328761
H      -0.847163      1.727080      1.418847
H      -2.010867      0.644512     -0.691026
H      -1.359704     -0.862362      1.335921
