14
Extracted from Q-Chem output
C      -1.128448     -0.234369      0.780881
C      -0.560330      1.042715      0.181129
C       0.920385      0.784067     -0.156682
C       1.067304     -0.727684     -0.055352
C      -0.409555     -0.908791     -0.404187
C      -0.613480      0.451966     -1.200613
H      -2.212349     -0.260188      0.667403
H      -0.856958     -0.535338      1.796348
H      -0.845632      2.060843      0.425811
H       1.643982      1.527389      0.167063
H       1.734885     -1.122980     -0.821833
H       1.365647     -1.122034      0.919185
H      -0.741225     -1.857491     -0.818065
H       0.897536      0.909597     -1.325471
