15
Extracted from Q-Chem output
C       3.061780     -0.100916      0.642377
C       1.757988      0.426323      1.089494
C       0.565350      0.267656      0.724674
C      -0.516628     -0.634435     -0.424096
C      -1.430168      0.145948      0.301892
O      -0.703018      0.670929      1.250211
C      -2.855397      0.496949      0.162971
H       3.737621      0.712933      0.372068
H       2.995261     -0.790259     -0.209951
H       3.543789     -0.631902      1.467154
H      -0.215543     -1.537219      0.111662
H      -0.623390     -0.792139     -1.492906
H      -3.048953      1.524620      0.468071
H      -3.172695      0.343851     -0.867556
H      -3.452563     -0.168667      0.793215
