13
Extracted from Q-Chem output
C       1.559478      0.280638      0.208540
C       0.401356     -0.599832     -0.967572
C      -0.022510      0.728995     -0.668700
C      -1.227117      0.720685      0.127875
C      -1.486442     -0.588857      0.355199
N      -0.520199     -1.348608     -0.245106
H       1.766743     -0.650893      0.720884
H       2.387880      0.559198     -0.430562
H       1.369461      1.047466      0.961028
H       0.360637      1.594704     -1.189491
H      -1.798513      1.564280      0.479444
H      -2.304983     -1.042200      0.897067
H      -0.520710     -2.351502     -0.249742
