13
Extracted from Q-Chem output
C       2.154944     -0.257692     -0.003577
C       2.377519      0.702120     -0.766360
C       0.676110      0.850456     -0.199086
N      -0.146902     -0.013500      0.640182
C      -0.880699     -1.052955     -0.059431
C      -1.571903      0.162919      0.425041
H       2.074164     -1.090234      0.661859
H       0.761648      1.813250      0.294446
H       0.247349      0.959780     -1.198239
H      -0.985738     -1.991308      0.471351
H      -0.724982     -1.143488     -1.130651
H      -2.182865      0.132322      1.318480
H      -1.880921      0.887813     -0.323029
