11
Extracted from Q-Chem output
O       0.653325     -1.182211      1.053679
C       1.072437     -0.733929     -0.112250
C       1.241044      0.745226     -0.218431
C      -0.023549      1.176118     -0.076002
N      -1.065915      0.231099      0.046497
C      -0.668776     -1.135108     -0.072379
N       0.320916     -1.280906     -1.057611
H       2.113482      1.360299     -0.358175
H      -0.312044      2.217776     -0.052407
H      -1.781569      0.434077      0.724678
H      -1.467936     -1.854398      0.118144
