12
Extracted from Q-Chem output
C       0.490009     -0.695032     -0.798957
C       1.111517      0.068163      0.348538
C       0.381024      0.811917     -0.746278
C      -0.940619      0.688582      0.051383
C      -0.831500     -0.818373     -0.000623
C      -0.210114     -0.054739      1.146505
H       0.960825     -1.323878     -1.539939
H       2.146706      0.132694      0.649510
H       0.751591      1.551952     -1.439988
H      -1.821166      1.310809      0.112235
H      -1.612598     -1.563945      0.014219
H      -0.425675     -0.108150      2.203395
