10
smiles: [C:1]([C:2]#[N+:3][O-:4])([H:7])([H:8])[H:9].[N:5]#[C:6][H:10]
C       -2.24255700      -0.64988800      -0.09933900
C       -0.90434000      -0.49575500       0.45908900
N        0.15173500      -0.37482800       0.89889900
O        1.25653500      -0.24843000       1.35922500
N        3.68753100       1.75731100      -1.44359800
C        3.12685100       1.21543500      -0.60691900
H       -2.96314800      -0.07188200       0.47973800
H       -2.54285300      -1.69791500      -0.08133000
H       -2.26552700      -0.29955600      -1.13159100
H        2.60377600       0.70928700       0.17510600
