10
Extracted from Q-Chem output
C      -1.457775     -0.220134      0.054308
C       0.002419     -0.356860      0.199555
N       0.829426     -1.111701      0.648946
O       2.014028     -1.230669      0.764676
N       2.361936      0.769427     -0.318695
C       1.219070      0.996281     -0.490610
H      -1.805669      0.697185      0.530719
H      -1.959062     -1.066570      0.521184
H      -1.735370     -0.188682     -1.000187
H       0.530995      1.711725     -0.909896
