8
Extracted from Q-Chem output
C      -1.417180      0.101371      0.142924
C       0.769823     -0.287062     -0.514181
O      -0.004873      0.329874      0.303922
C       2.147434      0.056748     -0.208538
N       3.285124      0.210727     -0.116125
H      -1.878909      1.068214     -0.046797
H      -1.573469     -0.587680     -0.684610
H      -1.784842     -0.310244      1.080706
