19
Extracted from Q-Chem output
C       2.275083     -0.687944      0.627902
C       0.948859     -0.502806     -0.090570
C       0.170426      0.718878      0.328993
O       0.934778      1.827652      0.527942
C      -1.169100      0.902392     -0.178769
C      -1.873681     -0.113590     -0.990990
O      -2.387914     -1.172393     -0.158411
H       2.789199     -1.568236      0.240419
H       2.924051      0.176702      0.489554
H       2.122271     -0.829185      1.699320
H       0.304587     -1.374814      0.032752
H       1.117019     -0.370182     -1.165030
H       0.065374      0.327440      1.794182
H       0.422885      2.579822      0.213836
H      -1.675326      1.818609      0.103248
H      -0.799012      0.435132      1.204173
H      -1.219938     -0.556925     -1.753214
H      -2.701227      0.373322     -1.518198
H      -2.797036     -1.832258     -0.723026
