11
Extracted from Q-Chem output
C       1.738834      0.081574      0.177982
C       0.269617      0.050949      0.001598
N      -0.582227      1.028754      0.057939
C      -1.935450      0.498491     -0.143523
C      -1.694685     -0.808400     -0.347692
O      -0.331488     -1.078928     -0.303272
H       2.033729     -0.566167      1.004675
H       2.055744      1.100227      0.386653
H       2.236284     -0.275021     -0.724627
H      -1.464980      1.645277      0.450151
H      -2.314695     -1.662607     -0.556558
