19
smiles: [C:1](=[C:2]([C:3]([H:12])([H:13])[H:14])[H:11])([H:9])[H:10].[C:4]1([H:15])=[C:5]([H:16])[C:6]1([O:7][H:19])[H:18].[H:8][H:17]
C        1.59316700      -0.45248600       1.09823900
C        1.76225800      -0.74128700      -0.18267600
C        2.36863400       0.17425300      -1.19778700
C       -2.22143800      -1.26035900      -0.53989400
C       -2.53986700      -0.69881100       0.58724400
C       -2.22631400       0.21710800      -0.52902600
O       -1.03819300       0.96563900      -0.56611300
H       -0.99377400       2.05694200       2.63734100
H        1.14447400      -1.15995200       1.78488600
H        1.90006600       0.50466100       1.50782000
H        1.43885300      -1.71385200      -0.54694100
H        3.25010000      -0.28106400      -1.65668200
H        2.66778800       1.12340100      -0.75103500
H        1.66189800       0.38203000      -2.00532600
H       -2.03362500      -2.16549300      -1.09369400
H       -2.80071700      -0.81127000       1.62678900
H       -1.08844500       1.94421800       1.90738700
H       -2.99536600       0.79411300      -1.03426700
H       -0.35031600       0.46261400      -0.12359600
