12
Extracted from Q-Chem output
C      -2.323141      0.384487     -0.125823
N      -1.005525     -0.143815      0.140990
C       2.727481     -1.081989     -0.482791
C       1.876790     -0.420794      0.247880
N       1.142060      0.212869      0.981807
C      -0.149352      0.637878      0.617416
H      -2.560372      0.225421     -1.179228
H      -3.057235     -0.174327      0.457548
H      -2.426813      1.452895      0.104587
H       2.675215     -2.160474     -0.523178
H       3.474313     -0.555393     -1.059138
H      -0.335696      1.689472      0.856531
