16
Extracted from Q-Chem output
C      -1.105390     -0.725020     -1.128514
C      -1.270002     -0.184125      0.121140
C       0.533508      0.127505      1.092010
C       1.605107     -0.266947      0.330208
C      -0.558561      1.026778      0.605492
O      -0.218053      1.899463     -0.436935
H      -0.786583     -0.084727     -1.943024
H      -1.713976     -1.578990     -1.402335
H       0.267578     -1.408471     -1.086157
H      -1.854322     -0.713769      0.863920
H       0.366322     -0.332308      2.059138
H       2.365952     -0.886691      0.788899
H       1.044915     -1.290380     -0.669252
H       1.934494      0.354087     -0.495876
H      -1.085695      1.536424      1.416235
H       0.496417      2.462821     -0.132642
