10
Extracted from Q-Chem output
N      -1.573874      0.126113      0.016040
C      -0.204238     -0.055558     -0.143704
C       0.867123      0.984922     -0.242066
N       1.776573      0.290830      0.320534
N       0.787867     -0.809976      0.670922
N       0.301737     -1.298589     -0.613167
H      -2.059703     -0.756610      0.075563
H      -1.807449      0.717905      0.799495
H       0.950355      1.980655     -0.664544
H       1.017049     -1.203299     -1.329442
