9
Extracted from Q-Chem output
C      -1.002775      0.175174      0.291560
N       0.202093      0.240490     -0.514140
C       1.631062     -0.515234     -0.119131
O       1.587607     -1.366487      0.688547
H      -0.710242     -0.064557      1.315687
H      -1.543250      1.123012      0.287061
H      -1.668255     -0.617645     -0.055710
H       0.080808      0.314522     -1.518694
H       1.422954      0.710725     -0.375182
