13
Extracted from Q-Chem output
O      -2.237417     -0.090709     -0.400439
C      -0.793227     -0.631933      0.544778
C      -0.092190      0.596512      0.402263
N       1.016186      0.606220     -0.507235
C       2.084056     -0.215288     -0.379887
O       2.204630     -1.078948      0.459237
H      -3.031890      0.022939      0.136560
H      -0.527203     -1.485791     -0.063787
H      -1.255312     -0.871745      1.495283
H       0.057427      1.172096      1.312302
H      -1.424919      0.757921     -0.231375
H       1.039717      1.279382     -1.251953
H       2.854095     -0.027072     -1.150149
