14
smiles: [C:1](=[C:2]([O:3][H:11])[H:10])([H:7])[H:8].[C:4]([C:5]([H:9])([H:13])[H:14])(=[O:6])[H:12]
C        3.23943700       0.80548800       0.98707400
C        1.94548400       0.95371200       0.75948500
O        1.41321500       0.89372000      -0.48991800
C       -1.51447700      -0.50850000      -0.60621900
C       -2.85360100      -1.17722200      -0.68499200
O       -1.34032700       0.63131200      -0.27464900
H        3.93661500       0.62698300       0.17879000
H        3.61587900       0.86204700       1.99768900
H       -2.85296700      -2.07327700      -0.05914600
H        1.23816400       1.13286200       1.56515500
H        0.46518700       1.01622800      -0.44532100
H       -0.64903900      -1.14654000      -0.88553500
H       -3.64332300      -0.49751500      -0.37094400
H       -3.03131100      -1.50799700      -1.71187700
