15
Extracted from Q-Chem output
C      -1.440165     -0.909696      0.406960
N      -0.577177     -0.030367     -0.368794
C      -0.694286      1.275514     -0.317705
C       0.726558     -0.464310     -0.737206
C       1.650843      0.209808      0.427938
O       2.887556      0.168071      0.254919
H      -2.050968     -1.513256     -0.265828
H      -2.093110     -0.315984      1.044408
H      -0.836876     -1.568131      1.028862
H      -1.510732      1.713969      0.241726
H       1.070421      1.273970      0.339633
H      -0.190980      1.873656     -1.063449
H       1.052443     -0.040759     -1.686065
H       0.812387     -1.549044     -0.744797
H       1.234296     -0.163811      1.408937
