13
Extracted from Q-Chem output
O       0.882619      0.268601      1.180000
C       1.052837      0.206771     -0.320218
C       0.048031     -0.793454     -0.850017
C      -1.313453     -0.590194     -0.238787
C      -1.597965      0.610604      0.353092
N      -1.591716      1.638287      0.934869
H       1.208401      1.114834      1.518338
H       2.092970     -0.068309     -0.475435
H       0.846434      1.216324     -0.674081
H       0.408668     -1.806701     -0.645353
H       0.099102     -0.668767     -1.944331
H      -0.135609      0.314701      1.287345
H      -2.025071     -1.399233     -0.222408
