14
Extracted from Q-Chem output
C      -1.694114      0.273666      0.225115
C      -0.608050     -0.776839      0.049445
C       0.724435     -0.198410     -0.344861
C       1.718994      0.278144      0.616222
O       1.880402     -0.912199     -0.149078
C       0.628539      0.150117     -2.078222
N       0.712212      1.205694     -1.546610
H      -1.395405      1.033604      0.949588
H      -2.611033     -0.193510      0.585132
H      -1.915246      0.776856     -0.715840
H      -0.433363     -1.305725      0.990954
H      -0.897436     -1.521945     -0.692450
H       2.375828      1.096179      0.350363
H       1.528415      0.120085      1.673833
