11
Extracted from Q-Chem output
C       1.296208     -0.763791      0.616300
C       1.924589      0.054332     -0.307543
C       1.046868      0.909896     -0.688161
C      -0.018795      1.688439     -0.758533
C      -1.072495      0.925300     -0.368626
C      -0.936956     -0.584077     -0.277627
O       0.009915     -0.992490      0.750868
H       1.828708     -1.246292      1.433427
H      -2.028705      1.349506     -0.069410
H      -0.576815     -0.997722     -1.224139
H      -1.858171     -1.080299      0.018153
