12
Extracted from Q-Chem output
O       0.546936     -1.669986      1.466837
C       0.457741     -0.867893      0.614405
C       1.382207      0.316560      0.208056
C       2.500980      0.809566      0.313616
C      -0.632316     -0.454705     -0.463818
C      -1.962672     -0.082560     -0.220010
N      -0.003788      0.860308     -0.707408
H       3.459545      1.272276      0.363582
H      -0.510365     -1.107226     -1.330523
H      -2.202648      0.535078      0.637454
H      -2.783494     -0.412900     -0.843067
H      -0.354093      1.525166     -0.018249
