12
Extracted from Q-Chem output
C      -1.982040      0.447851      0.201777
C      -0.555169      0.115316      0.015911
C       0.029657     -1.085180     -0.780669
O       1.064470     -0.377703     -1.457312
C       1.437913     -0.194694     -0.136633
O       2.758801     -0.041239      0.046944
N       0.470508      0.690739      0.516339
H      -2.087821      1.355805      0.792470
H      -2.467032      0.581522     -0.768337
H      -2.491815     -0.378305      0.701842
H       1.072062     -1.308132      0.266972
H       2.895680      0.249467      0.954136
