14
Extracted from Q-Chem output
C       2.261530      0.036109      0.225376
N       1.140139      0.381400     -0.611981
C      -0.121699      0.172431     -0.236586
N      -1.126273      0.305329     -1.208442
N      -2.363429      0.730577     -0.369584
C      -1.980310     -0.396271      0.289555
C      -0.687336     -0.285916      0.926107
H       2.372044     -1.047370      0.335089
H       3.173170      0.440226     -0.210499
H       2.136208      0.475345      1.216691
H       1.281454      0.593208     -1.584471
H      -3.138951      0.522100     -0.994198
H      -2.604143     -1.293316      0.280119
H      -0.315857     -0.670850      1.856830
