9
Extracted from Q-Chem output
N      -1.217752     -0.756201     -0.550747
C      -0.235625      0.198425     -0.173939
C       0.983840     -0.129538      0.221860
N       2.134441     -0.460398      0.403555
C      -0.566537      1.588130     -0.244523
N      -0.845250      2.703166     -0.275704
H      -1.839055     -1.012366      0.202713
H      -0.821134     -1.577662     -0.978706
H       2.439278     -0.593675      1.363972
