9
Extracted from Q-Chem output
N      -1.087776     -0.817695     -0.460192
C      -0.107290      0.134080     -0.240133
C       1.218066     -0.222264      0.055560
N       2.352110     -0.657773      0.049102
C      -0.469576      1.489397     -0.052610
N      -0.772012      2.590742      0.102808
H      -1.831002     -0.895721      0.215932
H      -0.776038     -1.700216     -0.826441
H       1.483815      0.059302      1.133287
