15
Extracted from Q-Chem output
O      -2.118297      0.824381      0.910741
C      -1.284407     -0.265343      0.622592
C      -1.086375     -0.568655     -0.897415
C       0.326534     -0.115600     -0.718191
C       2.321305      0.245958     -1.216075
O       1.039092      0.537549     -1.596732
C       0.245307     -0.011949      0.770797
H      -1.800537      1.598692      0.439489
H      -1.670880     -1.100962      1.204248
H      -1.689282      0.034781     -1.583155
H      -1.218181     -1.622312     -1.157080
H       3.030399      1.046070     -1.366924
H       2.605178     -0.788260     -1.301976
H       0.552741      0.968808      1.156883
H       0.760675     -0.776528      1.351824
