13
Extracted from Q-Chem output
N       2.616391     -0.081204     -0.324563
C       1.547609     -0.637925     -0.135194
C       0.399762     -1.254286     -0.043788
C      -0.937282     -0.573444     -0.188626
C      -0.863422      0.939086     -0.330816
O      -0.273877      1.581737      0.783217
H       3.033784      0.333442      0.504773
H       0.430292     -2.318944      0.155175
H      -0.785662      1.367375      1.565531
H      -1.565815     -0.823718      0.674933
H      -1.460679     -0.973227     -1.064089
H      -1.870232      1.331982     -0.518733
H      -0.241411      1.207418     -1.187390
