13
Extracted from Q-Chem output
N       2.467731     -0.088384     -0.041873
C       1.293130     -0.288244      0.155123
C       0.154437     -1.035225      0.449153
C      -1.046878     -0.573566     -0.358316
C      -0.866871      0.980246     -0.343141
O       0.179795      1.244651      0.558677
H       2.900437      0.793457      0.185979
H       0.286819     -2.067023      0.747611
H       0.059091      0.117746      1.191517
H      -1.971180     -0.898287      0.122968
H      -1.052299     -0.957065     -1.380060
H      -1.781045      1.483338     -0.017374
H      -0.607355      1.349841     -1.340041
