11
Extracted from Q-Chem output
C       2.873599      0.907957      0.235383
C       1.754413      0.491025      0.151006
C       0.434672     -0.009559      0.049685
C      -0.760193      0.551048      0.145047
C      -1.760128     -0.537792     -0.062021
C      -0.950348     -1.787040     -0.286190
O       0.299692     -1.407232     -0.208084
H       3.868519      1.279847      0.309950
H      -0.952861      1.594276      0.335548
H      -2.416688     -0.389844     -0.926906
H      -2.431490     -0.705239      0.787650
