14
Extracted from Q-Chem output
C       2.953898     -0.038566     -0.797022
C       1.794778     -0.223337     -0.551244
C       0.400652     -0.391270     -0.246457
C      -0.299816      0.856774      0.237143
C      -1.778164      0.700526      0.548853
C      -0.177975     -1.580089     -0.399321
H       3.983631      0.114335     -1.018170
H      -1.947245     -0.038959      1.334319
H       0.234574      1.215391      1.122543
H      -0.154759      1.632922     -0.520787
H      -2.192241      1.648744      0.893835
H      -2.343640      0.391558     -0.332672
H       0.387049     -2.433014     -0.751089
H      -1.226475     -1.732515     -0.179082
