14
Extracted from Q-Chem output
C       2.917607     -0.333570     -0.859777
C       1.805624     -0.273656     -0.400814
C       0.491947     -0.234537      0.144141
C      -0.189076      1.066857      0.496622
C      -1.527560      0.317440      0.458050
C      -0.594620     -0.968699     -0.551757
H       3.903421     -0.389254     -1.255720
H      -0.887112     -0.572501      1.060496
H       0.039167      1.508984      1.467454
H      -0.094409      1.844806     -0.274473
H      -2.271697      0.415997      1.262706
H      -2.111765      0.521702     -0.453206
H      -0.641630     -0.909702     -1.658117
H      -1.007552     -1.910513     -0.209226
