18
smiles: [C:1]([C:2]([H:10])([H:11])[H:12])([H:7])([H:8])[H:9].[C:3]([O:4][H:13])[C:5]([C:6]([H:16])([H:17])[H:18])([H:14])[H:15]
C       -2.34617700      -0.48808200      -0.27610500
C       -2.12079100       0.91163200      -0.83179400
C        0.96772600       0.71154900       1.21925800
O        0.12359900       0.14997700       2.03186800
C        1.47872300      -0.24249600       0.18696000
C        2.96065100      -0.05579500      -0.11800300
H       -3.15861300      -0.99703800      -0.79850300
H       -1.45118100      -1.10491600      -0.37771000
H       -2.60555800      -0.45778800       0.78407600
H       -1.86111600       0.88120600      -1.89189500
H       -3.01568200       1.52863100      -0.73033200
H       -1.30838100       1.42059200      -0.30931200
H       -0.01051900      -0.80549800       1.85580300
H        1.24657700      -1.29733800       0.42910800
H        0.89021300       0.01522100      -0.70522400
H        3.26999300      -0.69085700      -0.94886100
H        3.16530800       0.98294600      -0.37652100
H        3.57310800      -0.31013200       0.74827100
