12
Extracted from Q-Chem output
O      -2.494429     -0.539288     -0.308252
C      -1.332688     -0.327553      0.164302
C      -0.903140      1.096841      0.061961
C       0.907721     -0.064364     -0.418675
C       0.000685     -1.006906     -0.006768
C       2.301851     -0.076095     -0.091326
N       3.415781     -0.068047      0.189299
H      -1.210199      1.644234     -0.827999
H      -0.667108      1.690959      0.942295
H       0.637808      0.587115     -1.249362
H      -1.196236     -0.507600      1.307989
H       0.251513     -1.970854      0.420067
