12
Extracted from Q-Chem output
N      -2.115987     -0.475733     -0.264973
C      -1.040279      0.310362      0.033540
C       0.227045     -0.418581      0.168398
C       1.456919      0.184971      0.151757
O       2.602597     -0.511104      0.018847
C       1.551372      1.505984      0.609072
O      -1.162781      1.516185      0.177984
H      -2.984631     -0.006250     -0.448966
H      -2.006263     -1.418240     -0.587593
H       0.182294     -1.488664      0.355745
H       2.393641     -1.401034     -0.281705
H       0.906691      2.208011      0.073774
