14
smiles: [C:1]([H:7])([H:8])([H:9])[H:13].[C:2]1([H:10])=[O+:6][C-:5]([H:14])[C:4]([H:11])([H:12])[O:3]1
C       -1.82931200      -0.08388800       1.58161100
C       -0.11377200      -0.57123200      -1.17593000
O        0.08079300       0.70184600      -1.32512500
C        1.47396500       0.93671200      -0.86637100
C        1.64351300      -0.19785100       0.11748900
O        0.72950100      -1.18293700      -0.48860400
H       -2.15565500       0.22318000       2.57407900
H       -2.13192800      -1.11439800       1.40184600
H       -2.28393000       0.56386000       0.83358500
H       -1.01718900      -1.03730900      -1.54383300
H        2.08534700       0.93628800      -1.78868700
H        1.49625700       1.92817700      -0.41986500
H       -0.74490300      -0.00780500       1.51631100
H        2.62391000      -0.66811500       0.11481200
