15
Extracted from Q-Chem output
C      -0.996776     -0.919482     -0.446671
C      -0.999217      1.235402      1.269275
C      -0.392894      1.912134      0.239214
N       0.549327      1.165980     -0.468656
C       0.588356     -0.085626      0.068391
N       1.711569     -0.894372     -0.098075
C      -0.348866     -0.037534      1.167989
H      -0.480382     -1.631081     -1.093386
H      -1.688170     -1.477276      0.178808
H      -1.529225     -0.147811     -0.990940
H      -0.566820      2.925427     -0.105210
H       1.132152      1.476298     -1.225239
H       1.714604     -1.698955      0.507880
H       1.908423     -1.163570     -1.050798
H      -0.416774     -0.857184      1.874705
