12
Extracted from Q-Chem output
O      -2.216429     -0.003565     -1.033686
C      -1.666791     -0.060437      0.259745
C      -0.288161      0.466362      0.336764
N       0.381200      1.448511      0.444414
O       1.525440      1.838646      0.411231
C       2.371738     -0.224482     -0.047919
C       1.359462     -0.903340     -0.067166
H      -1.619997     -0.437777     -1.647775
H      -2.308168      0.545038      0.901181
H      -1.667660     -1.081396      0.657002
H       3.334009      0.230155     -0.060292
H       0.799761     -1.809604     -0.151763
