19
smiles: [C:1]([C:2]([H:11])([H:12])[H:13])([H:8])([H:9])[H:10].[C:3]1[C:4]([H:14])([H:15])[C@@:5]2([H:16])[C:6]([H:17])([H:18])[C@@:7]12[H:19]
C        2.64265200       0.05270000      -0.20960500
C        1.82972500      -0.70024400      -1.25411100
C       -0.48236700       0.42076700       1.41843400
C       -0.99997500       1.47758500       0.47373200
C       -2.15252500       0.57067300       0.74967600
C       -2.10083100      -0.60856800      -0.15874700
C       -1.15819700      -0.74712800       0.99448700
H        3.07211400       0.96692000      -0.62401700
H        3.46674700      -0.55617000       0.16732400
H        2.02566600       0.33713800       0.64502900
H        1.00572700      -0.09131000      -1.63110900
H        2.44685700      -0.98470700      -2.10862400
H        1.40020700      -1.61442500      -0.83970000
H       -0.71985200       1.46880100      -0.57978300
H       -0.98751100       2.47706900       0.89426500
H       -2.95881000       0.75948200       1.44147700
H       -2.93645900      -1.29862400      -0.13713900
H       -1.71568700      -0.40808500      -1.15393000
H       -1.26523100      -1.59003900       1.67039400
