8
Extracted from Q-Chem output
C      -1.067854     -0.378739     -0.233628
N      -1.076797      0.935193     -0.439906
N       0.032976      1.598968     -0.240756
N       1.116354      0.978933      0.152078
C       1.053466     -0.336103      0.339801
N      -0.021880     -1.082188      0.161100
H      -2.004525     -0.898170     -0.406986
H       1.968261     -0.817893      0.668297
