14
Extracted from Q-Chem output
C       1.032064      1.087095      0.257968
C       1.072918     -1.073535      0.171623
C      -0.273692     -0.739107     -0.461066
O      -1.349283     -0.797493      0.477344
C      -1.504551      0.639777      0.461357
C      -0.282211      0.789206     -0.447433
H       1.367595     -0.122379      0.853826
H       1.820362      1.124734     -0.508988
H       1.011152     -1.829475      0.956499
H       1.863320     -1.306848     -0.536214
H      -0.493004     -1.309632     -1.368029
H      -1.404875      1.076080      1.457824
H      -2.462549      0.923803      0.016625
H      -0.416413      1.343650     -1.375638
