12
Extracted from Q-Chem output
N       2.203321     -0.641661     -1.645780
C       1.507182     -0.544755     -0.737602
C       0.688502     -0.390887      0.477224
C       0.080548      0.987491      0.788223
C      -0.909215      0.669946     -0.338026
N      -0.751870     -0.724624      0.216384
H       1.137335     -0.972634      1.281973
H      -0.925045     -0.204709      1.261912
H       0.689483      1.886384      0.793342
H      -0.533344      0.690087     -1.368315
H      -1.929737      1.045832     -0.286157
H      -1.056779     -1.574696     -0.255645
