15
Extracted from Q-Chem output
C      -2.176550     -0.170151      0.371164
C      -0.884625      0.562926      0.037851
C       0.317617     -0.371095     -0.020673
C       1.609450      0.376813     -0.359728
C       2.769327     -0.509219     -0.418661
N       3.667796     -1.221211     -0.461262
H      -2.108179     -0.668142      1.341130
H      -3.024191      0.515594      0.409175
H      -2.399689     -0.933718     -0.377483
H      -0.700582      1.343050      0.784025
H      -0.989782      1.077610     -0.922998
H       0.439279     -0.882414      0.938189
H       0.147646     -1.150886     -0.768184
H       1.812280      1.149958      0.385588
H       1.520202      0.880885     -1.325389
