11
Extracted from Q-Chem output
N       1.598333     -0.527045      0.190785
C       2.662519     -0.643265      0.648342
C       0.305984     -0.374137     -0.352316
C      -0.887361     -0.532478      0.602607
O      -1.428820      0.721748      0.172646
C      -0.224206      1.057676     -0.525079
H       0.227332     -0.979272     -1.253578
H      -0.597952     -0.520476      1.657178
H      -1.564482     -1.364783      0.406096
H       0.370773      1.802800      0.010258
H      -0.414904      1.388637     -1.546860
