13
Extracted from Q-Chem output
C      -1.760640     -0.404272     -0.428682
O      -1.204276     -0.273697      0.866104
C       0.161972     -0.060529      0.880125
C       0.683930      1.237362      0.291966
N       1.684101      1.035924     -0.469283
C       1.808147     -0.393079     -0.484874
N       0.974625     -1.062045      0.198416
H      -1.551230      0.475855     -1.048367
H      -2.836659     -0.494510     -0.294678
H      -1.380017     -1.296992     -0.930709
H       0.314342      2.228978      0.530636
H       2.596899     -0.842414     -1.076930
H       0.463904     -0.078024      1.936433
