13
Extracted from Q-Chem output
C      -2.179923     -0.006833     -0.115171
O      -1.086684     -0.719526      0.431052
C       0.116122     -0.198371      0.146584
C       0.561487      0.891545     -0.544025
N       1.939924      0.923369     -0.501810
C       2.303042     -0.112468      0.191272
N       1.225580     -0.838070      0.615588
H      -2.202622      1.019325      0.263160
H      -3.079539     -0.531025      0.198742
H      -2.125393      0.009762     -1.207734
H      -0.010849      1.641296     -1.064458
H       3.316722     -0.399350      0.424418
H       1.222132     -1.679654      1.162383
