13
Extracted from Q-Chem output
C      -2.015298     -0.421772     -0.354949
O      -1.237056     -0.074363      0.787946
C       0.068044      0.122639      0.513843
C       0.769727      1.309644      0.268461
N       1.972006      1.027669     -0.229884
C       2.024505     -0.304636     -0.315680
N       0.923928     -0.963410      0.072583
H      -1.947918      0.361236     -1.115944
H      -3.042994     -0.510859     -0.010584
H      -1.679472     -1.372479     -0.773546
H       0.436271      2.317379      0.467503
H       2.909647     -0.836159     -0.634097
H       0.773708     -0.582334      1.294503
