9
Extracted from Q-Chem output
O      -0.126263      2.073763      0.760512
C       0.084960      0.945829      0.373558
C       1.170847      0.061945      0.266547
O       0.207463     -1.099818     -0.201823
C      -0.885013     -0.077358     -0.255191
H       1.911596     -0.292576      0.967495
H       0.470214     -1.362803     -1.090993
H      -1.212610      0.084043     -1.280730
H      -1.691310     -0.427183      0.384033
