9
Extracted from Q-Chem output
O      -0.023123      2.028912      0.597362
C       0.084492      0.880958      0.261809
C       1.195840     -0.042785      0.184350
O       0.040090     -1.224702     -0.259967
C      -0.932884     -0.137530     -0.244504
H       1.802861     -0.395316      1.009183
H       0.855028     -0.832499     -0.882215
H      -1.387707      0.035785     -1.219276
H      -1.688608     -0.386845      0.498542
