15
Extracted from Q-Chem output
C       0.516479      1.461580      0.066956
C       1.151219      0.119209      0.428490
C      -0.087628     -1.731711     -0.181617
O      -1.143656     -1.494237      0.527248
C      -1.249492     -0.116546      0.703705
C      -0.619663      0.583398     -0.501131
C       0.465514     -0.513157     -0.776293
H       0.262025      2.172526      0.858366
H       1.048773      1.973067     -0.740517
H       2.175649     -0.088488      0.707618
H       0.260320     -2.754250     -0.216826
H      -0.041083     -0.030044      1.290288
H      -2.237885      0.143280      1.065507
H      -1.287028      0.943765     -1.285055
H       0.950237     -0.545462     -1.751755
