14
Extracted from Q-Chem output
N      -2.387985     -0.166110      0.244228
C      -1.010920     -0.041330      0.020914
C       0.043014     -0.854408      0.060226
C       1.271600     -0.071714     -0.092413
N       2.522430     -0.720076     -0.173792
C       1.068060      1.257809     -0.252149
N      -0.463271      1.307780     -0.168172
H      -2.935916     -0.266032     -0.599269
H      -2.610107     -0.916579      0.879655
H      -0.011686     -1.928975      0.178241
H       2.728171     -1.271761      0.647736
H       3.250563     -0.029958     -0.297328
H      -0.725293      1.914429      0.606158
H      -0.808681      1.753644     -1.015959
