14
Extracted from Q-Chem output
N      -2.432407     -0.202330      0.029958
C      -1.046517     -0.005205     -0.040548
C       0.018609     -0.838718      0.051377
C       1.220279     -0.061209      0.040207
N       2.487185     -0.621132      0.248618
C       1.004172      1.287481     -0.163015
N      -0.530670      1.290438     -0.076101
H      -2.890384     -0.180216     -0.870468
H      -2.673377     -1.058546      0.504454
H      -0.045852     -1.913345      0.159104
H       3.216283      0.047580      0.050329
H       2.642461     -1.472942     -0.268294
H       0.047578      1.668733      0.829937
H      -1.035417      2.058477     -0.492723
