17
Extracted from Q-Chem output
C      -2.223833      0.277140      0.063786
C      -0.764383      0.216636      0.454956
C      -0.202445     -1.208206      0.419502
C       1.256245     -1.421460      0.360298
C       1.980815     -0.254969     -0.176668
C       1.320622      1.119724     -0.099434
O      -0.044441      1.048610     -0.434032
H      -2.823686     -0.354570      0.721477
H      -2.351362     -0.071839     -0.963217
H      -2.597431      1.299454      0.127458
H      -0.646827      0.612237      1.476714
H      -0.481239     -1.685344     -0.541126
H      -0.664513     -1.852157      1.173628
H       2.045866     -0.578505     -1.233730
H       3.021181     -0.240821      0.159655
H       1.439002      1.535559      0.912005
H       1.779852      1.819473     -0.799086
