8
Extracted from Q-Chem output
O      -0.223610     -2.345648     -0.360887
C       0.316234     -1.309823     -0.222089
C       1.654178     -0.728384     -0.186903
C       1.121306      0.463324      0.023316
C      -0.535209      0.077252      0.033226
C      -1.471025      0.849615      0.198802
H       1.340615      1.509614      0.181356
H      -2.236011      1.579858      0.352907
