12
Extracted from Q-Chem output
C      -1.707395      0.289150     -0.113142
C      -0.480332     -0.507890     -0.055188
C       0.851239      0.094747      0.227643
O       0.583306      1.159378      0.908342
N       1.805943      0.184558     -0.852284
H      -2.219710      0.321736      0.854232
H      -1.476975      1.318310     -0.389610
H      -2.400492     -0.201939     -0.805177
H      -0.595620     -1.584376      0.079152
H       1.115747     -0.759202      0.955093
H       1.864613     -0.663561     -1.402327
H       2.718664      0.405113     -0.476087
