14
smiles: [C:1]([C:2](=[C:3]([H:11])[H:12])[H:10])([H:7])([H:8])[H:9].[C:4](=[C:5]=[O:6])([H:13])[H:14]
C        1.70467000      -0.07142500       0.21267500
C        0.91427600       0.25173000      -1.01505800
C        0.09388700      -0.58322300      -1.63347200
C       -2.01090900       0.87015400       1.11099700
C       -1.64883500      -0.35543600       1.38765300
O       -1.32804900      -1.43862700       1.62947600
H        1.44982700       0.60826800       1.02993600
H        1.52131500      -1.09374100       0.54618700
H        2.77595700       0.04352300       0.02808300
H        1.03763700       1.25568600      -1.41510500
H       -0.45177000      -0.28789100      -2.52136000
H       -0.06261000      -1.59503400      -1.27312600
H       -1.67934800       1.31991100       0.18837700
H       -2.63254000       1.41089200       1.80714000
