14
Extracted from Q-Chem output
C       1.809166     -0.313989      0.231789
C       0.553414      0.301526     -0.321691
C      -0.356295     -0.425557     -1.103422
C      -1.869798      0.673410      0.389282
C      -0.749227     -0.002347      0.820189
O      -0.496591     -0.798362      1.693396
H       2.094094      0.170810      1.164574
H       1.666295     -1.373248      0.436852
H       2.622575     -0.196455     -0.487173
H       0.614103      1.364491     -0.533886
H      -0.953749      0.017730     -1.884954
H      -0.376289     -1.507243     -1.032944
H      -1.784871      1.442103     -0.361980
H      -2.772827      0.647129      0.989969
