21
Extracted from Q-Chem output
C       2.462879     -0.243527      0.068538
C       1.210268     -0.497772     -0.726931
C       0.050756     -1.204073     -0.018938
C      -1.125786     -0.402416     -0.555413
C      -2.359886     -0.353545      0.329004
C      -0.419522      0.948543     -0.783779
C      -0.194721      1.735509      0.472225
H       2.250047      0.363691      0.951446
H       2.877523     -1.192948      0.421637
H       3.229867      0.261419     -0.520139
H       1.419019     -0.953754     -1.698776
H       0.018207     -2.283068     -0.199650
H       0.140601     -1.061890      1.061680
H      -1.423948     -0.797815     -1.532751
H      -2.122919     -0.015378      1.340161
H      -3.114437      0.320395     -0.084123
H      -2.811224     -1.345203      0.408535
H       0.774959      0.543772     -1.223489
H       0.600125      2.472259      0.348927
H      -0.038016      1.188127      1.413992
H      -1.121314      2.308917      0.594098
