13
Extracted from Q-Chem output
C      -1.878815     -1.688417      0.110934
N      -0.932623     -0.872620      0.481027
C      -0.054989     -0.044320     -0.327180
C       0.086525      1.430201      0.074871
O       1.509320      1.304246      0.189119
C       1.448590     -0.111133     -0.025816
H      -1.908628     -1.644927     -0.997032
H      -0.316317     -0.208831     -1.370393
H      -0.766531     -0.787459      1.478288
H      -0.383218      1.678544      1.033125
H      -0.204836      2.169606     -0.673570
H       1.697694     -0.677162      0.878669
H       2.095362     -0.433810     -0.843997
