17
Extracted from Q-Chem output
C       1.357777     -0.076451     -0.881140
N       1.410617      0.671122      0.792054
C       0.253783      0.458953      1.554061
C      -0.144208      0.063566      0.178885
C      -1.037750      1.052725     -0.527940
C      -0.580820     -1.386390      0.092403
H       1.888068     -1.004908     -0.705183
H       0.674159     -0.220399     -1.728702
H       2.034403      0.714992     -1.175012
H      -0.251141      1.360791      1.918050
H       0.245448     -0.346149      2.302145
H      -2.026374      1.051495     -0.063222
H      -1.162180      0.797609     -1.583606
H      -0.619351      2.056289     -0.457542
H      -1.542380     -1.488178      0.601092
H      -0.702079     -1.708730     -0.944780
H       0.133326     -2.046384      0.583784
