11
Extracted from Q-Chem output
O      -0.882971      1.408159     -1.215053
C      -0.309837      0.547688     -0.387574
C      -0.810393     -0.755562      0.147549
C       0.282355     -1.297377      1.056408
C       1.236766     -0.361574      0.980855
N       0.862995      0.761607      0.095503
H      -1.029643     -1.437867     -0.681633
H      -1.755815     -0.604400      0.680551
H      -1.751201      1.082879     -1.469087
H       2.212785     -0.271059      1.436554
H       1.409322      1.582696     -0.122572
