11
Extracted from Q-Chem output
O      -0.385517      0.720037     -1.591791
C      -0.413266      0.693121     -0.289998
C      -1.197077     -0.348571      0.303429
C       0.183529     -0.970334     -0.177223
C       1.221704     -0.238544      0.344231
N       0.757406      1.083514      0.505401
H      -2.045618     -0.692717     -0.270377
H      -1.305703     -0.394282      1.381231
H       0.011689     -0.511539     -1.527312
H       2.277919     -0.461711      0.235430
H       0.589455      1.475362      1.422228
