11
Extracted from Q-Chem output
O       1.000033     -0.762712      1.380165
C       1.000415     -0.640993      0.107822
C       1.070743      0.715496     -0.425550
C      -0.196664      1.133277     -0.205644
N      -1.172416      0.233777      0.260705
C      -1.014899     -0.979449     -0.387657
N       0.168875     -1.489642     -0.534378
H       1.932482      1.324155     -0.638640
H      -0.483438      2.175571     -0.269614
H      -0.162555     -0.309575      1.310398
H      -1.890718     -1.531608     -0.712434
