13
Extracted from Q-Chem output
C       0.367877     -1.276430      0.057951
C       1.126106     -0.452318     -0.923664
C       0.750153      0.953800     -0.608321
C      -0.399461      0.981992      0.380212
N      -1.612413      0.284223     -0.026954
C      -0.638979     -0.418270      0.799271
H       1.157865     -1.668159      0.719362
H      -0.043019     -2.175801     -0.413512
H       1.679042      1.373895     -0.189323
H       0.594206      1.535200     -1.523633
H      -0.548258      1.831606      1.036134
H      -1.565655     -0.014229     -0.996119
H      -0.978781     -0.692408      1.791073
