13
Extracted from Q-Chem output
C       0.459899     -1.208554      0.093129
C       1.115124     -0.321337     -0.956755
C       0.601375      0.961028     -0.688650
C      -0.488776      1.004652      0.340012
N      -1.654771      0.184789      0.013244
C      -0.599424     -0.395835      0.824609
H       1.215441     -1.615627      0.769933
H       0.033798     -2.077859     -0.418145
H       1.743267      0.665805     -0.282394
H       0.844309      1.823044     -1.306023
H      -0.674392      1.885978      0.940967
H      -1.609363     -0.146256     -0.944907
H      -0.879797     -0.631710      1.844452
