17
Extracted from Q-Chem output
C      -1.758353      0.188255      0.466697
C      -0.430993     -0.365444      0.935423
O      -0.458463     -1.830929      0.724209
C       0.257583     -2.268372     -0.261989
C       0.946276     -1.066459     -0.857013
C       0.815868      0.067809      0.165816
C       0.785644      1.470665     -0.420222
H      -1.828050      1.254997      0.685384
H      -1.893265      0.046108     -0.607332
H      -2.574325     -0.319536      0.980944
H      -0.325816     -0.234503      2.012862
H       1.664474     -0.002189      0.852456
H       1.970288     -1.305647     -1.144817
H       0.408027     -0.855145     -1.791794
H      -0.016345      1.584859     -1.152210
H       0.646269      2.229775      0.352786
H       1.726804      1.687919     -0.927836
