17
Extracted from Q-Chem output
C      -1.959402     -0.037957      0.332354
C      -0.560102     -0.292480      0.842822
O      -0.189087     -1.670711      0.954720
C       1.043083     -1.672511      0.259060
C       0.718041     -0.982427     -1.058227
C       0.621414      0.100760     -0.042056
C       1.112611      1.504247     -0.250099
H      -2.164232      1.035282      0.323415
H      -2.101772     -0.431698     -0.674089
H      -2.685307     -0.515959      0.991369
H      -0.448966      0.148153      1.841367
H       1.521240     -0.464840      0.710874
H       1.564587     -0.898140     -1.732759
H      -0.193370     -1.311772     -1.543457
H       0.421961      2.039007     -0.907186
H       1.183867      2.047695      0.693749
H       2.092795      1.508332     -0.727574
