11
Extracted from Q-Chem output
C      -1.837458      0.200871      0.010862
C      -0.468234     -0.433650     -0.025353
C       0.664906      0.508499     -0.097262
C       1.896951      0.044781     -0.175274
N       3.003977     -0.390192     -0.357959
O      -0.314569     -1.633554      0.003116
H      -1.915523      0.879359      0.863492
H      -1.999322      0.792299     -0.893253
H      -2.597359     -0.573187      0.086002
H       0.512438      1.579202     -0.080936
H       3.587712     -0.626198      0.436159
