12
Extracted from Q-Chem output
N      -2.196518      0.057103     -0.221172
C      -0.936455     -0.048443     -0.102690
C      -0.047090      1.167677      0.117168
N       1.267002      0.595121      0.388578
C       1.209123     -0.750188      0.127525
C      -0.035045     -1.197006     -0.121399
H      -0.408968      1.773645      0.947887
H      -2.621937     -0.857023     -0.356582
H      -0.038568      1.783490     -0.786357
H       2.092484      1.107266      0.133879
H       2.120109     -1.333331      0.170269
H      -0.326133     -2.224352     -0.273413
