12
Extracted from Q-Chem output
N      -2.015254      0.213686      0.206434
C      -0.774559     -0.121529     -0.110032
C       0.011734      1.088208      0.027754
N       1.331841      0.583703      0.273768
C       1.331441     -0.747073      0.071810
C       0.082550     -1.244763     -0.237052
H      -1.325510      1.343721      0.533746
H      -2.802854     -0.318968     -0.146329
H      -0.032415      1.719329     -0.862422
H       2.161815      1.134633      0.374783
H       2.240217     -1.317876      0.213535
H      -0.170769     -2.288074     -0.332074
