13
Extracted from Q-Chem output
C      -1.504362     -0.648218      0.087699
C      -0.201160      0.031788      0.378199
C       0.610208      1.637343     -0.152981
C       0.894968      0.261972     -0.642700
C       1.749757     -0.519273      0.334322
O       2.834668     -0.969973      0.419918
O       0.724698     -0.614284      1.264117
H      -2.122291     -0.694199      0.984171
H      -1.325890     -1.662883     -0.269675
H      -2.046876     -0.092700     -0.677753
H      -0.349868      1.108887      0.847955
H      -0.160593      2.026771     -0.842891
H       0.791018     -0.030489     -1.681042
