15
Extracted from Q-Chem output
C      -0.906059      1.185225      0.124577
C      -0.282322     -0.154705     -0.173448
C       1.067610     -0.108238     -0.739644
C       2.062831      0.724637     -0.155755
N       2.211028      1.744035      0.510023
C      -0.686816     -1.339885      0.649489
N      -1.103660     -1.238208     -0.732434
H      -0.237628      1.796554      0.737946
H      -1.094898      1.734004     -0.799406
H      -1.847707      1.067200      0.663023
H       1.395885     -0.956453     -1.327884
H       2.882291     -0.056895     -0.105584
H      -1.408850     -1.149620      1.436826
H       0.036990     -2.117487      0.860863
H      -2.066840     -0.930756     -0.799795
