15
Extracted from Q-Chem output
C      -1.855798      1.550639      0.154987
C      -1.449847      0.309294      0.363487
C      -0.350389     -0.065523      1.308037
O       0.659072     -0.846025      0.683557
C       1.411136     -0.170011     -0.245237
C       1.792912     -0.791597     -1.352098
O       1.443823     -2.061608     -1.670933
H      -1.391211      2.390271      0.662170
H      -2.665302      1.777479     -0.527710
H      -1.919161     -0.516748     -0.164506
H      -0.733276     -0.691692      2.116246
H       0.093059      0.833419      1.753923
H       1.703333      0.847452     -0.012891
H       2.437956     -0.321515     -2.080304
H       0.888542     -2.396461     -0.958456
