15
Extracted from Q-Chem output
C      -1.413246      1.258982     -0.330974
C      -0.489399      0.212185     -0.023990
C      -0.130575     -0.153739      1.406121
O       1.263675     -0.389491      1.372071
C       1.651763     -0.119581      0.072363
C       0.631730     -0.373856     -0.893890
O       0.267617     -1.738240     -1.175732
H      -1.755271      1.957974      0.423228
H      -1.798425      1.356377     -1.337447
H      -1.562009     -0.216505     -0.298698
H      -0.667536     -1.044130      1.744610
H      -0.322064      0.662369      2.107535
H       2.499267      0.541163     -0.045679
H       0.785532      0.178693     -1.823820
H       1.087290     -2.242219     -1.172696
