16
smiles: [C:1]([C:2]1([H:10])[C:3]([H:11])=[C:4]1[H:13])([H:7])([H:8])[H:9].[C:5](=[O:6])([H:14])[H:15].[H:12][H:16]
C       -1.87332200      -0.82307400      -0.63153800
C       -1.41609900       0.55180600      -1.06890900
C       -0.27314500       1.25557600      -0.40046100
C       -0.02812200       0.80001800      -1.57923900
C        1.95801300      -1.04875100       0.48913400
O        1.47449700      -1.48940300       1.49012800
H       -2.30977100      -1.37733500      -1.46672100
H       -1.03540400      -1.40386200      -0.24009000
H       -2.63331600      -0.75427400       0.15136000
H       -2.22216400       1.16717400      -1.47369400
H        0.06808200       1.76324800       0.48494300
H        1.82002300       1.39142300       2.99337700
H        0.66512400       0.65244700      -2.38898200
H        1.89949900      -1.58717800      -0.47634100
H        2.49123100      -0.07870700       0.47401600
H        1.66972000       0.67316900       2.86688500
