16
Extracted from Q-Chem output
C      -1.544887     -0.788967     -0.030441
C      -0.975033      0.451319     -0.682376
C      -0.071267      1.408191      0.013547
C       0.499139      0.637291     -0.917055
C       1.707831     -0.882741      0.002555
O       1.585781     -0.914253      1.237530
H      -1.739896     -1.557207     -0.782484
H      -0.869361     -1.205140      0.716292
H      -2.493118     -0.560417      0.461346
H      -1.662018      0.904986     -1.400376
H      -0.066895      2.423704      0.374061
H       0.195210      0.862864      1.560124
H       1.147937      0.812222     -1.758601
H       1.175304     -1.613517     -0.621025
H       2.600249     -0.424473     -0.444826
H       0.710646      0.252678      1.722650
