15
Extracted from Q-Chem output
C       1.707598     -0.307967      0.157378
C       0.676077      0.212136     -0.837217
C      -0.740800      0.385019     -0.284975
N      -0.715524      1.491336      0.706214
O      -1.540368      2.332211      0.517933
C      -1.282597     -0.838278      0.444269
H       1.747735      0.316353      1.050843
H       1.487385     -1.330222      0.469743
H       2.699902     -0.312037     -0.295760
H       1.004420      1.175441     -1.238771
H       0.609194     -0.464978     -1.693704
H      -1.423050      0.680269     -1.088137
H      -2.330526     -0.692608      0.709168
H      -1.209486     -1.718544     -0.196601
H      -0.723310     -1.031972      1.360520
