11
Extracted from Q-Chem output
N       3.139464      0.188547      0.251279
C       2.079583     -0.183860      0.022865
C       0.716897     -0.630395     -0.247291
C      -0.293572      0.212924      0.519470
C      -2.528894      0.264240     -0.368280
O      -1.604536     -0.345351      0.294100
H       0.620509     -1.678288      0.042631
H       0.528794     -0.563500     -1.320836
H      -0.110123      0.164772      1.592434
H      -2.102424      1.254853     -0.690582
H      -0.289329      1.254178      0.187364
