11
Extracted from Q-Chem output
N       3.030850      0.404651      0.318690
C       2.033700     -0.100807      0.065342
C       0.747115     -0.720953     -0.236770
C      -0.414381      0.069379      0.339328
C      -1.913255      0.671264     -0.611751
O      -1.633313     -0.554745     -0.001003
H       0.724650     -1.728896      0.181600
H       0.620823     -0.804775     -1.317420
H      -0.355300      0.295830      1.403021
H      -2.317936      1.312528      0.214342
H      -0.412255      1.073509     -0.235477
