10
Extracted from Q-Chem output
N       1.729869      0.092057      0.262894
C       0.351890      0.350034      0.522023
C      -0.324531      1.266483     -0.482861
O      -1.462110      0.668791     -0.726885
C      -1.527138     -0.575190     -0.021094
N      -0.533198     -0.832715      0.679360
H       1.867420     -0.325684     -0.646401
H       2.122950     -0.518223      0.964433
H       0.262517      0.914317      1.464610
H      -2.432338     -1.143610     -0.185493
