13
Extracted from Q-Chem output
C       0.452824     -1.217346      0.033134
C       1.573061     -0.507800     -0.692411
C       1.117779      0.715138     -0.429903
C      -2.410884      1.031458      0.571271
N      -1.389865      0.565967     -0.088562
C      -0.055399      0.216657      0.385657
H       0.734185     -1.835630      0.887851
H      -0.234604     -1.784055     -0.598230
H       2.447164     -0.879780     -1.211854
H       1.456859      1.715046     -0.668703
H      -2.077912      1.129263      1.625514
H      -1.512990      0.416617     -1.084398
H      -0.021203      0.453913      1.450068
