13
Extracted from Q-Chem output
C       0.444696     -1.231283     -0.123705
C       1.329252     -0.173302     -0.710398
C       0.713069      0.876710     -0.160602
C      -1.212680      1.336976     -0.133435
N      -1.724641      0.069961      0.223056
C      -0.335202     -0.130296      0.626190
H       0.944169     -1.880419      0.599711
H      -0.139356     -1.857656     -0.802543
H       2.229452     -0.245460     -1.305580
H       1.035441      1.902847     -0.044700
H      -1.142251      1.911915      0.810348
H      -1.890694     -0.459265     -0.626551
H      -0.228452     -0.091506      1.706916
