12
Extracted from Q-Chem output
O      -0.688096     -1.895025      1.805759
C      -0.100202     -1.346544      0.930559
C       0.347114     -1.352984     -0.462994
C       0.638927     -0.150202      0.485826
C      -0.043564      1.158054      0.333355
C      -0.686291      1.569453     -0.748019
H      -0.405779     -1.224514     -1.232328
H       1.187011     -1.975753     -0.746597
H       1.664986     -0.098233      0.842024
H      -0.007104      1.797106      1.211010
H      -1.178363      2.533190     -0.772452
H      -0.742741      0.966940     -1.647735
