15
Extracted from Q-Chem output
C      -1.966069      0.446567     -0.305329
C      -0.473281      0.211793     -0.106476
O      -0.306756     -0.338420      1.185693
C       0.955844     -0.459027      1.639657
C       2.089303     -0.109231      1.041160
C      -0.028934     -0.768478     -1.162243
O       0.181323     -0.077944     -2.254110
H      -2.504815     -0.501804     -0.301169
H      -2.340763      1.063895      0.510209
H      -2.145124      0.956263     -1.251637
H       0.069483      1.165627     -0.174839
H       0.951793     -0.900851      2.629533
H       3.020050     -0.274671      1.564011
H       2.144679      0.324951      0.053072
H       0.410277     -0.690069     -2.961521
