15
Extracted from Q-Chem output
C      -0.993063     -1.834627      0.263080
C      -0.288650      0.372875      0.150845
C      -0.801741      1.138947     -1.009486
N      -0.261442      1.832172      0.154615
C       0.980206     -0.290317      0.042222
O       0.925605     -1.538789     -0.014340
N       2.125407      0.385475      0.025769
H      -1.801752     -1.399737     -0.306595
H      -0.703307     -2.812519     -0.099810
H      -1.128301     -1.773998      1.332097
H      -0.216200      1.256060     -1.917325
H      -1.877847      1.137925     -1.171087
H      -0.995173      2.205129      0.743316
H       2.058373      1.391149      0.064471
H       3.011992     -0.081647      0.062777
