17
smiles: [C:2](=[C:3]1[C:4]([H:12])([H:13])[C:5]([H:14])([H:15])[O:6][C:7]1([H:16])[H:17])([H:9])[H:10].[O:1]([H:8])[H:11]
O        1.35371000      -0.02521100       2.20655100
C        1.51643100      -0.45289400      -1.18438400
C        0.29267500      -0.15221500      -0.78368700
C       -0.25768000       1.21198200      -0.44828800
C       -1.53593700       0.85851600       0.30858700
O       -1.98319800      -0.34868900      -0.28027400
C       -0.83617900      -1.13279100      -0.54785500
H        1.46476400      -0.82744500       2.71838700
H        2.27567000       0.30918400      -1.31339500
H        1.80364000      -1.47512800      -1.40414000
H        1.52434000      -0.27696300       1.29803600
H        0.43753500       1.81905500       0.13142700
H       -0.50253900       1.75170100      -1.36666100
H       -2.33138300       1.59607100       0.20763900
H       -1.32732400       0.70866900       1.37741400
H       -1.04551100      -1.76392500      -1.41283300
H       -0.60541700      -1.78308800       0.30764300
