12
Extracted from Q-Chem output
N      -1.463686      2.594050      0.440115
C      -0.787951      1.669005      0.384433
C       0.028785      0.466442      0.278841
C       1.464849      0.615678      0.034050
C       0.057738     -1.936080     -0.502302
C      -0.737385     -0.776621     -0.135106
O       0.964733      0.289861      1.320750
H       1.966032     -0.196181     -0.481586
H       1.880305      1.613704     -0.060045
H      -0.650249     -2.778827     -0.585420
H      -1.197526     -0.619204     -1.138802
H      -1.594803     -0.943675      0.529369
