15
Extracted from Q-Chem output
C      -2.271652      0.363950      0.297040
C      -1.380301     -0.840430      0.033618
C       0.082586     -0.589678      0.388845
C       3.169185      0.850359     -0.697180
C       0.731144      0.476972     -0.438757
N       1.929881      0.623058     -0.527166
H      -2.266505      0.631633      1.357216
H      -1.924163      1.231230     -0.267418
H      -3.305030      0.162029      0.010286
H      -1.733971     -1.700512      0.609771
H      -1.444576     -1.125992     -1.020132
H       0.155601     -0.251560      1.429945
H       0.665788     -1.515347      0.322437
H       3.688431      0.374889     -1.518627
H       3.682344      1.534631     -0.034825
