13
Extracted from Q-Chem output
N       1.351502     -1.613521      0.776058
C       1.540908     -0.433418      0.736829
C       1.049596      0.779808      0.423074
C       0.398488      0.757743     -0.957458
C      -0.950342      0.186807     -0.553961
C      -1.069116     -0.870605      0.456366
N      -1.017180      0.352279      0.942592
H       1.223552      1.675714      0.995543
H       0.965769      0.181941     -1.689328
H       0.262617      1.767505     -1.344605
H      -1.828632      0.486984     -1.119887
H       0.103425     -1.584637      0.765869
H      -1.785796     -1.649546      0.687253
