16
Extracted from Q-Chem output
C      -1.409841     -1.430472     -0.358276
C      -0.783435     -0.102398     -0.688675
C      -0.877432      1.018411      0.196625
C       1.386365      1.219668     -0.556892
C       0.617867      0.185126     -0.009957
N       0.902024     -0.658339      0.976904
O       2.199584     -0.325844      1.418888
H      -2.450996     -1.427713     -0.687542
H      -1.368789     -1.627542      0.710546
H      -0.882673     -2.235432     -0.868653
H      -0.748207      0.141880     -1.744135
H      -0.923930      2.030153     -0.170988
H      -1.164075      0.855019      1.225554
H       2.393490      1.394190     -0.211947
H       0.990447      1.824205     -1.358614
H       2.371195     -1.000333      2.077667
