10
Extracted from Q-Chem output
O       1.199840      0.366381      1.331617
C       1.359726     -0.172789      0.229130
C       0.390601     -0.226917     -0.758163
C      -1.024513     -0.050031     -0.235270
N      -0.801501      1.051237      0.574594
H       2.274275     -0.759265      0.047685
H       0.590057     -0.401421     -1.806082
H      -1.570813      0.289600     -1.125824
H      -1.486063     -0.945832      0.191618
H      -0.920727      0.827807      1.562236
