14
Extracted from Q-Chem output
O       2.797568      0.249821      1.031943
C       1.714440     -0.364644      0.385741
C       0.445431      0.297393      0.591421
C      -2.006232      0.960835     -0.916819
O      -1.939189      0.051134      0.152967
C      -0.685345     -0.564105      0.253838
H       3.599846     -0.224339      0.806018
H       1.726619     -1.460239      0.523255
H       1.748616     -0.194718     -0.719147
H      -1.249143      1.746404     -0.811400
H      -2.996371      1.412836     -0.897265
H      -1.866016      0.453044     -1.881933
H      -0.733249     -1.217456      1.143504
H      -0.514084     -1.236236     -0.610159
