14
Extracted from Q-Chem output
O       2.272381      0.862140      0.459891
C       1.354042     -0.177256      0.217265
C       0.019741      0.115244      0.759601
C      -1.315405      0.850642     -0.749379
O      -2.059071     -0.154964     -0.152275
C      -1.013186     -0.949058      0.391048
H       3.106455      0.639197      0.043026
H       1.616741     -1.099802      0.773338
H       1.353832     -0.462941     -0.850606
H      -0.526271      1.185199      0.142512
H      -1.890196      1.768205     -0.879076
H      -0.793420      0.550117     -1.665786
H      -1.370284     -1.511799      1.255864
H      -0.676346     -1.667616     -0.382124
