13
smiles: [C:1]([O:2][C:3]#[N:4])([H:8])([H:9])[H:10].[N:5]([C:6](=[O:7])[H:13])([H:11])[H:12]
C       -1.75575600      -0.93124400      -0.98238600
O       -1.82487700       0.50640200      -0.85855200
C       -0.70058000       1.11457900      -0.97577800
N        0.29404500       1.68705300      -1.07623400
N        1.73011700       0.74900300       2.00110200
C        1.38056200      -0.25124400       1.15870600
O        0.52101300      -1.06767400       1.37862300
H       -2.77380600      -1.28291500      -0.84579600
H       -1.10313000      -1.33590600      -0.20943400
H       -1.38815700      -1.19799600      -1.97281300
H        2.45699000       1.39790500       1.76683500
H        1.25440200       0.83683100       2.88219600
H        1.97308000      -0.24711500       0.22553200
