17
smiles: [C:1]([C@@:2]1([H:11])[C:5]([H:14])([H:15])[C@:6]1([O:7][H:17])[H:16])([H:8])([H:9])[H:10].[C:3]([O:4][H:13])[H:12]
C       -1.42025400      -0.33719800      -0.79733200
C       -0.42284700       0.32981500       0.11259200
C        0.96260000      -2.29977500       2.31820800
O        0.69929000      -2.50317500       1.05988300
C        1.04359400       0.32970000      -0.23686700
C        0.26887400       1.59883600      -0.30163600
O        0.05545700       2.12508000      -1.57735900
H       -2.42498900       0.06673400      -0.64764700
H       -1.46349900      -1.41157600      -0.60760200
H       -1.15259400      -0.19056500      -1.84431300
H       -0.65342300       0.26026100       1.17066500
H        1.05727600      -1.19204200       2.46020700
H        0.63710900      -1.70414000       0.51316300
H        1.77921300       0.20308400       0.54619900
H        1.31427700      -0.10153300      -1.19286500
H        0.45571100       2.34531800       0.46608500
H       -0.80151300       2.55627100      -1.58863700
