17
Extracted from Q-Chem output
C       2.686903      0.012103      0.129814
C       1.221452      0.034156     -0.170584
C       0.329372     -0.796596      0.360493
O      -1.333029      1.461515      1.232913
C      -1.958935      0.366880      0.652422
C      -1.837151      0.130760     -0.815447
C      -1.135302     -0.798931      0.144716
H       3.266438     -0.183657     -0.776088
H       2.931321     -0.756254      0.864422
H       3.025814      0.975722      0.518737
H       0.894502      0.774846     -0.897019
H      -0.388383      1.275168      1.288004
H       0.684160     -1.539323      1.072451
H      -2.899869      0.138682      1.138756
H      -2.686019     -0.261459     -1.359960
H      -1.234771      0.841780     -1.366049
H      -1.594938     -1.771261      0.276739
