14
smiles: [C:1]1([H:7])([H:8])[C:2]([H:9])=[C:3]([H:10])[O:4][C:5]([H:12])=[C:6]1[H:14].[H:11][H:13]
C        1.55388600       0.38536100      -0.78743800
C        0.85409100       1.33442400       0.14292200
C       -0.37176100       1.11737500       0.59299100
O       -1.14021900       0.03317600       0.27949700
C       -0.57240800      -0.87240500      -0.57015500
C        0.64166400      -0.76967800      -1.08776800
H        1.84535000       0.89697900      -1.71237500
H        2.49090100       0.02934500      -0.34284600
H        1.35825300       2.23572500       0.46750700
H       -0.89880900       1.78365000       1.26205900
H       -2.59651100      -1.32120400       2.03141000
H       -1.24880600      -1.69227800      -0.76942100
H       -3.00135500      -1.75663100       2.47960300
H        0.97538600      -1.55661000      -1.75205500
