13
Extracted from Q-Chem output
N      -1.761975      0.874921     -0.043947
C      -0.394371      0.558703     -0.048848
C       0.022480     -0.814817      0.177393
O      -0.685042     -1.954363      0.313254
N       1.352201     -0.841738     -0.044411
C       1.764863      0.471206     -0.307471
C       0.749469      1.388536     -0.325568
H      -2.206458      0.574510     -0.901671
H      -1.868416      1.878175      0.032703
H      -1.618604     -1.726207      0.371506
H       1.929109     -1.645701      0.134377
H       2.827441      0.624530     -0.447464
H      -0.116043      0.047979      1.163316
