14
Extracted from Q-Chem output
C      -1.581952     -0.343971      0.238532
C      -0.809465      0.720971     -0.521205
C       0.253375      1.405512      0.015854
O       1.995224      0.343083     -0.135492
C       1.795140     -0.770111      0.410145
N       0.641575     -1.392499      0.502211
C      -0.403659     -1.036147     -0.260150
H      -1.616717     -0.214129      1.315405
H      -2.540405     -0.582613     -0.208548
H      -1.081931      0.893996     -1.553085
H       0.432782      1.394543      1.082416
H       0.698020      2.224741     -0.529458
H       2.632322     -1.248176      0.931055
H      -0.428553     -1.397332     -1.287160
