10
Extracted from Q-Chem output
N       2.134464     -0.116691     -0.174401
C       0.920984      0.091043     -0.028526
C      -0.252229     -0.737291     -0.384608
C      -1.397315     -0.038063      0.198285
C      -0.897864      1.249568      0.834305
O      -1.142979     -0.002962     -1.204231
O       0.389666      1.267191      0.607362
H       2.700541      0.643502      0.197772
H      -0.165706     -1.803045     -0.541434
H      -2.318278     -0.508527      0.514405
