11
Extracted from Q-Chem output
O       2.290494     -0.744403      0.088582
N       1.419732     -0.235814      0.862340
C       0.474698      0.240104      0.010434
C      -0.708329      1.061733      0.462424
O      -1.638305      0.058021      0.016272
C      -0.606453     -0.773163     -0.500395
H       1.566039     -0.166107     -0.825692
H      -0.852776      2.002400     -0.074383
H      -0.759632      1.233936      1.540981
H      -0.557518     -1.755992     -0.024398
H      -0.675093     -0.877010     -1.584899
