12
Extracted from Q-Chem output
O      -0.560531      1.231199     -1.496270
C      -0.400038      1.276873     -0.173587
C      -0.436542      0.228854      0.695593
C      -0.287506     -1.182842      0.166585
O       0.798827     -0.982535     -0.731356
C       1.493775      0.065612     -0.113896
H      -0.274122      0.360209     -1.813554
H      -0.354483      2.291740      0.204188
H      -0.505841      0.432727      1.754590
H      -0.006169     -1.880586      0.961432
H      -1.153592     -1.581523     -0.371465
H       1.697338     -0.259831      0.931725
