12
Extracted from Q-Chem output
O      -1.620709     -0.780258      1.826781
C      -0.824539     -0.777039      0.936476
C      -0.569911      0.442096      0.062203
C       0.867318      0.966922      0.397020
C      -0.478729      0.219358     -1.376440
C       0.094005     -0.968900     -1.820964
N       0.558952     -1.905362     -2.329685
H      -0.208367     -1.667313      0.693217
H      -1.286921      1.225567      0.309018
H       1.606732      0.170747      0.308550
H       0.847160      1.333095      1.422703
H       1.145617      1.785513     -0.265196
