12
Extracted from Q-Chem output
N       2.435202      0.509065     -1.989761
C       1.761100      0.174369     -1.125632
C       0.945489     -0.269031      0.004082
N      -0.486205     -0.027411     -0.230461
C      -1.124194     -0.994731     -0.876339
C      -0.942824      1.139821      0.204443
H       1.098960     -1.334787      0.167189
H       1.249761      0.262119      0.904273
H      -2.161526     -0.850453     -1.128590
H      -0.575478     -1.869604     -1.176134
H      -1.970816      1.396603      0.009653
H      -0.265565      1.811681      0.700001
