13
Extracted from Q-Chem output
C      -0.535986     -1.531432      1.123524
C      -1.224162     -0.569051      0.202773
N      -0.736164      0.393407     -0.450446
C       0.676342      0.691021     -0.370142
C       1.029602      1.834382     -1.297563
O       2.155021      2.197455     -1.494763
H       0.513109     -1.296362      1.291779
H      -0.605369     -2.541952      0.712254
H      -1.051392     -1.547656      2.086398
H      -2.297990     -0.729098      0.080706
H       1.312083     -0.160165     -0.637933
H       0.972917      0.999812      0.640009
H       0.159083      2.320286     -1.782414
