18
Extracted from Q-Chem output
C      -2.439897      0.155026      0.199865
C      -1.109577      0.435722     -0.453742
C      -0.009317      1.124006      0.331777
C       1.212330      0.202156     -0.345987
C       2.298842     -0.399470      0.302120
C      -0.035080     -0.624044     -0.404635
H      -2.303313     -0.257687      1.202431
H      -3.012715     -0.567878     -0.384520
H      -3.039537      1.063069      0.287019
H      -1.220224      0.878720     -1.444672
H      -0.076970      0.992765      1.407182
H       0.236319      2.145703      0.058983
H       1.449285      0.693620     -1.288655
H       2.163637     -0.851552      1.278093
H       1.748144     -1.892926     -0.654547
H       3.316233     -0.185204      0.005598
H       0.981601     -1.992821     -0.989069
H      -0.142588     -1.260964      0.477181
