12
Extracted from Q-Chem output
N       0.384197      0.854758      1.125257
C       0.011298      0.063916     -0.057813
C      -1.282977     -0.005018     -0.790007
C      -0.827146     -1.237844     -0.062963
O       0.298114     -1.776753     -1.018347
C       1.064844     -0.771852     -0.629938
O       2.263566     -0.673075     -0.524213
H       0.175735      1.846972      1.037848
H       1.401753      0.736285      1.219653
H      -2.127028      0.469679     -0.298838
H      -1.252016      0.115449     -1.868843
H      -0.075118      0.474963      1.955642
