12
Extracted from Q-Chem output
N       0.358354      0.899666      1.110912
C       0.168608      0.250647     -0.202459
C      -1.232672      0.055917     -0.726977
C      -0.680189     -0.980498      0.167198
O       0.245447     -1.813743     -0.682197
C       1.119994     -0.785498     -0.685274
O       2.300784     -0.799076     -0.853473
H       0.002965      1.845822      1.194290
H       1.332094      0.868118      1.401388
H      -1.984880      0.709888     -0.299469
H      -1.323036     -0.100066     -1.795676
H      -0.284648     -0.095882      1.431860
