10
Extracted from Q-Chem output
O      -1.689603      0.318777     -0.147738
C      -0.979809     -0.879546     -0.268102
C       0.512756     -0.736178     -0.077036
C       1.114534      0.392539      0.131778
C       1.705337      1.516534      0.358293
C       2.278444      2.631023      0.591659
H      -1.644206      0.630489      0.759048
H      -1.165746     -1.251292     -1.278526
H      -1.340629     -1.645759      0.430116
H       1.121994     -1.635586     -0.109214
