13
Extracted from Q-Chem output
O      -1.318585     -1.422174      0.657325
C      -0.218249     -1.459565      1.384506
C       0.630887     -0.860973      0.253160
C       1.035739      0.602761      0.474382
C      -0.080976      1.371891     -0.179174
C      -1.009003      0.598950     -0.733564
C      -0.679932     -0.840259     -0.542153
H       1.114583      0.842007      1.540667
H       1.437461     -1.510871     -0.081033
H       2.003095      0.839639      0.026116
H      -0.113827      2.455242     -0.171128
H      -1.900671      0.947641     -1.237103
H      -0.837968     -1.497736     -1.396561
