18
Extracted from Q-Chem output
C      -1.924517     -0.246889     -0.753265
C      -1.357878      0.778157      0.220446
C      -0.587198      0.155334      1.383026
N       0.557259     -0.657796      0.995130
C       1.609096     -0.094755      0.307039
O       1.898252      1.139072      0.792669
C       2.296728     -0.685298     -0.678813
H      -2.510940      0.235011     -1.537001
H      -1.127839     -0.808447     -1.246536
H      -2.576842     -0.960813     -0.242368
H      -0.696988      1.468277     -0.312112
H      -2.167978      1.384593      0.636848
H      -0.239330      0.937325      2.057983
H      -1.246840     -0.493037      1.965589
H       0.320896     -1.571115      0.646413
H       1.988431     -1.645204     -1.065838
H       2.580845      1.526980      0.241958
H       3.200818     -0.242832     -1.073411
