18
Extracted from Q-Chem output
C      -2.269534     -0.122125     -0.702631
C      -1.548148      0.797999      0.272384
C      -0.599323      0.064850      1.213553
N       0.496063     -0.602759      0.528174
C       1.645392     -0.012842      0.232226
O       1.825064      1.246599      0.467127
C       2.877243     -0.563012     -0.258623
H      -2.943682      0.442142     -1.348118
H      -1.565084     -0.648556     -1.350706
H      -2.865944     -0.871175     -0.174454
H      -0.976543      1.554750     -0.270579
H      -2.276774      1.336439      0.885096
H      -0.156305      0.769124      1.918611
H      -1.140503     -0.692031      1.787643
H       0.382111     -1.552678      0.224362
H       3.108880     -1.607168     -0.065919
H       2.962732      0.858009      0.283817
H       3.052538     -0.272406     -1.293532
