17
Extracted from Q-Chem output
C       2.633571     -0.454156      0.280717
O       1.538855     -0.007873     -0.475791
C       0.315941     -0.503720     -0.001846
C      -0.810562      0.154859     -0.759991
C      -2.161502     -0.453054     -0.458574
C      -0.960717      1.948826      0.753878
O      -0.850181      1.596671     -0.477454
H       2.551193     -0.136099      1.327583
H       3.531146     -0.017372     -0.154411
H       2.721637     -1.548559      0.253890
H       0.191763     -0.296673      1.069310
H       0.250046     -1.591312     -0.154915
H      -0.589621      0.125492     -1.827551
H      -2.946357      0.074290     -1.001293
H      -2.179198     -1.500628     -0.762169
H      -2.372906     -0.387359      0.609869
H      -0.981523      3.059348      0.689429
