13
Extracted from Q-Chem output
C      -1.271062     -0.260404     -0.202627
C      -0.072824      0.178682      0.600907
O      -0.100654      0.416736      1.953754
C      -0.570330      1.020902     -0.521596
O       0.574018      0.751544     -1.324599
C       1.200067      0.050313     -0.222261
O       1.729080     -1.173007     -0.552148
H       1.036376     -1.715996     -0.938932
H      -1.236887     -1.083358     -0.909402
H      -2.203264     -0.149492      0.338267
H      -0.188750     -0.421048      2.413675
H      -1.015952      2.004202     -0.550311
H       2.014410      0.646531      0.194285
