12
Extracted from Q-Chem output
O      -0.946336     -1.192778     -0.590089
C      -0.882468      0.230621     -0.736594
C       0.299617      0.707803      0.078257
O      -0.157033      0.967382      1.403008
C       0.887998     -1.680088     -0.242955
C       1.265818     -0.442508      0.026146
H      -1.337531     -1.411941      0.263013
H      -1.813142      0.691975     -0.404572
H      -0.730049      0.411376     -1.799210
H       0.721626      1.624315     -0.347887
H       0.533521      0.720114      2.020209
H       2.316633     -0.311160      0.269298
