12
Extracted from Q-Chem output
O      -1.409488     -1.238636     -0.482222
C      -1.104608      0.102200     -0.750508
C       0.004858      0.634026      0.151798
O      -0.474277      0.500698      1.483388
C       1.277514     -0.071151     -0.033872
C       2.330794     -0.625886     -0.157942
H      -1.546993     -1.312621      0.466603
H      -1.979683      0.749572     -0.608423
H      -0.791053      0.167349     -1.793018
H       0.161608      1.693914     -0.088093
H       0.270138      0.530498      2.086983
H       3.261191     -1.129962     -0.274694
