12
Extracted from Q-Chem output
O      -1.704913     -0.948547     -0.133988
C      -0.895417      0.043332     -0.699205
C       0.345050      0.376589      0.150857
O       0.065658      0.488153      1.502197
C       1.286021     -1.191492     -0.040807
C       1.983314     -0.163959     -0.203109
H      -2.235012     -0.547716      0.556894
H      -1.460136      0.976846     -0.817089
H      -0.578226     -0.297307     -1.683689
H       0.664984      1.371242     -0.178475
H      -0.083375     -0.406092      1.829191
H       2.753597      0.567892     -0.330613
