12
Extracted from Q-Chem output
C       1.751840      0.133340      0.796544
N       0.659228      0.911470      0.263423
C      -0.333336      0.266239     -0.203493
N      -0.500791     -1.085938     -0.300441
C      -1.468383      1.075078     -0.740681
O      -2.512118      0.394679     -1.118963
H       2.171823     -0.544209      0.041244
H       2.542954      0.799033      1.136332
H       1.437034     -0.478974      1.653179
H      -1.418320     -1.409844     -0.560968
H       0.061962     -1.705180      0.252089
H      -2.529983      1.551813     -1.216710
