12
Extracted from Q-Chem output
O       2.183702     -0.940151      0.734348
C       1.868753      0.097987      0.068057
C       0.621107     -0.064629     -0.569715
C      -0.597517     -0.163256      0.304541
C      -1.842979      0.535238     -0.006847
O      -1.709839     -0.863201     -0.224044
H       2.572912      0.931603      0.017091
H       1.201295     -1.313346      0.012802
H       0.447430      0.434231     -1.519481
H      -0.391596     -0.388123      1.349731
H      -2.528762      0.820396      0.786888
H      -1.895847      1.139389     -0.909001
