12
Extracted from Q-Chem output
C       0.996119     -0.433358     -0.562490
C       0.203131      0.848126     -0.256501
C      -1.187836      0.457765     -0.572283
O      -1.480393     -0.749165     -0.970350
C      -0.031055     -1.090983      0.309090
C      -0.370647      0.135200      0.964527
H       1.954203     -0.391425     -0.042949
H       1.102893     -0.766768     -1.593549
H       0.560946      1.869004     -0.321314
H      -1.926377      1.256081     -0.686731
H      -0.193641     -2.131867      0.551048
H      -0.881343      0.411317      1.869676
