20
smiles: [C:1]([C:2]([C:3]([C:4]([C:5]([H:15])([H:16])[H:17])=[C:6]([H:18])[H:19])([H:12])[H:13])([H:10])[H:11])([H:7])([H:8])[H:9].[H:14][H:20]
C        2.74264400       0.24826400      -0.22165900
C        1.32089800       0.02241400      -0.71978000
C        0.27834000       0.46865900       0.29438100
C       -1.16883900       0.28177600      -0.08099800
C       -2.14884800       0.73198100       0.96512600
C       -1.57116400      -0.23459100      -1.23587400
H        2.92250700       1.30445300      -0.00557200
H        3.47893800      -0.06732600      -0.96274800
H        2.93350100      -0.31309500       0.69636500
H        1.17256800       0.56390500      -1.65884600
H        1.17718600      -1.03782000      -0.94838300
H        0.43315900       1.53021700       0.52740700
H        0.45036300      -0.05516200       1.24364000
H       -0.50813400      -2.91993300       1.21334300
H       -3.17944500       0.57953900       0.64507800
H       -1.99656900       0.18628600       1.90080800
H       -2.01235900       1.79329700       1.19179900
H       -2.62564200      -0.34953600      -1.45902300
H       -0.87441300      -0.56005200      -1.99782800
H       -0.74551500      -2.44086000       0.69519700
