14
smiles: [C:1]([C-:2]1[C:3]([H:11])([H:12])[O+:4]=[C:5]([H:14])[O:6]1)([H:7])([H:8])[H:9].[H:10][H:13]
C       -1.88717700      -0.00920000       0.30935200
C       -0.39671400      -0.06728800       0.38823500
C        0.25158700      -1.09443100      -0.50251400
O        1.49987100      -0.40921200      -0.89333100
C        1.22392900       0.85759200      -0.81416700
O        0.17117800       1.15096000      -0.20490100
H       -2.30192600      -0.88112400       0.81939200
H       -2.28131900       0.87210000       0.81650200
H       -2.27883600      -0.01796900      -0.72619000
H        1.60214700       0.49036100       1.84279700
H        0.53298800      -2.02390200      -0.01400100
H       -0.28234600      -1.32187500      -1.45324400
H        2.26586600       0.82767600       1.85349800
H        1.94021700       1.60013300      -1.13615800
