10
Extracted from Q-Chem output
C       0.474874      0.904635     -0.161389
C       1.171716     -0.378414     -0.092787
N       0.760601     -1.581363      0.053598
N      -0.551612     -1.783293      0.178046
C      -1.645683     -2.175063      0.302496
C      -0.817368      1.159420      0.036370
H       1.135033      1.734033     -0.393713
H       2.252612     -0.329620     -0.191152
H      -1.545708      0.401607      0.281535
H      -1.175697      2.178605     -0.043697
