12
Extracted from Q-Chem output
C       1.200431     -0.541968      0.295625
C      -0.003915      0.010039     -0.456918
C      -1.304424     -0.146071      0.321172
C       0.384700      2.517850     -1.000581
N       0.210962      1.391804     -0.766458
H       1.054250     -1.604866      0.492585
H       2.114274     -0.418357     -0.284922
H       1.322412     -0.025471      1.248954
H      -0.094586     -0.507056     -1.415894
H      -1.493110     -1.202877      0.514696
H      -1.241297      0.376034      1.277250
H      -2.146078      0.261061     -0.238539
