12
Extracted from Q-Chem output
C       1.189080     -0.571675      0.250090
C      -0.006745      0.033450     -0.452339
C      -1.313432     -0.068833      0.287657
C       0.073999      1.697182     -1.187282
N       0.593512      1.884476     -0.147226
H       1.039202     -1.654993      0.280464
H       2.111252     -0.372199     -0.292871
H       1.295641     -0.203948      1.268775
H      -0.080610     -0.383393     -1.453117
H      -1.533867     -1.127489      0.452869
H      -1.253911      0.426237      1.256495
H      -2.131744      0.371381     -0.279650
