17
Extracted from Q-Chem output
C      -1.238290     -0.655419      1.003556
C      -1.883872      0.097801     -0.128243
C      -0.398161      0.071981     -0.003564
C       0.425434      1.277805      0.420739
C       1.868403      0.968222      0.327043
C       1.899258     -0.327519     -0.387164
C       0.514267     -0.672297     -0.956321
H      -1.257939     -1.737782      0.968429
H      -1.317424     -0.236431      1.999418
H      -2.401482      1.019667      0.107826
H      -2.338666     -0.477138     -0.925374
H       0.399714      2.051958     -0.376008
H       0.114159      1.797148      1.329056
H       2.099785     -0.952450      0.508353
H       2.761899     -0.481106     -1.036035
H       0.417950     -0.271085     -1.970622
H       0.313371     -1.743631     -1.004740
