10
smiles: [O:1]1[C:2]([H:6])([H:7])[C:3]1([H:8])[H:9].[O:4]([H:5])[H:10]
O       -0.44548800       0.50121200       0.76861300
C       -1.12407000      -0.49091000       0.02162400
C        0.00834700      -0.83553800       0.87336900
O        1.32048700       1.16198100      -1.31174100
H        0.76057800       1.23470400      -0.53779300
H       -2.13338800      -0.71485900       0.35462600
H       -0.98706100      -0.43660500      -1.05458900
H       -0.16771700      -1.31178300       1.83355700
H        0.97646100      -1.03372700       0.42252300
H        1.78982100       1.99549800      -1.36587600
