10
Extracted from Q-Chem output
O      -1.019452      0.907835     -0.041508
C      -1.102873     -0.470485     -0.035595
C       0.266718     -0.618873      0.449462
O       1.311265      0.878898     -0.708352
H       0.326969      1.169501     -0.611586
H      -1.848536     -0.873300      0.666935
H      -1.266212     -0.930965     -1.020117
H       0.456303     -0.265733      1.454069
H       1.043174     -1.192848     -0.035140
H       1.814523      1.436473     -0.109536
