11
Extracted from Q-Chem output
C       1.429136      0.296613      0.184682
C       1.540208      0.167289     -1.109987
C       0.083449      0.371271     -0.843967
C      -0.917748     -0.626135     -0.408651
C      -0.373448     -0.031881      0.849510
H       1.921146      0.659702      1.069918
H      -0.321347      1.352375     -1.090163
H      -1.945078     -0.385386     -0.655578
H      -0.655436     -1.663750     -0.585476
H      -0.909567      0.815341      1.260356
H       0.033008     -0.704087      1.590200
