14
smiles: [C:1]([C:2]([O:3][H:11])([H:10])[H:12])([H:7])([H:8])[H:9].[C:4](=[O:5])=[C:6]([H:13])[H:14]
C        1.16261400      -1.31151700       0.05835900
C        1.48129200       0.14832300       0.28325300
O        0.70634300       0.91299000      -0.62414800
C       -1.97785900       0.77009700       0.53195900
O       -1.59428800       1.12519000       1.56223000
C       -2.41301800       0.36868600      -0.63393500
H        1.74416800      -1.93892600       0.73617300
H        1.39791100      -1.59805400      -0.96772600
H        0.10240800      -1.50132200       0.23223200
H        2.55234000       0.32779100       0.12199900
H        0.90325000       1.84146300      -0.49524900
H        1.25021000       0.42759200       1.31958900
H       -3.46545200       0.17193200      -0.76534100
H       -1.71259400       0.23941500      -1.44397100
