14
Extracted from Q-Chem output
O       1.049131     -0.653354     -1.942845
C       0.557023      0.134252     -0.912235
C      -0.853605     -0.186756     -0.465313
C      -1.032165      0.128558      1.012789
O       0.126330     -0.398263      1.645567
C       1.259903      0.177599      1.190121
H       0.884802     -1.579368     -1.744621
H       0.724343      1.171435     -1.191361
H      -1.039728     -1.253119     -0.625174
H      -1.571382      0.368245     -1.072495
H      -1.911899     -0.352423      1.440722
H      -1.087749      1.210757      1.186750
H       1.112640      1.272134      1.092163
H       1.464385     -0.176626      0.013784
