17
Extracted from Q-Chem output
C      -1.798325     -0.385570     -0.487274
C      -1.073586      0.387000      0.608061
C       1.691681     -0.992955      0.800972
O       2.084250     -2.112994      0.244552
C       1.269592     -0.064066     -0.283476
C       0.271886      0.979590      0.191435
O       0.135440      1.910784     -0.873880
H      -1.892468      0.213789     -1.394284
H      -2.800852     -0.668106     -0.162489
H      -1.270737     -1.304487     -0.750455
H      -1.708639      1.208454      0.959523
H      -0.900386     -0.253730      1.478348
H       2.395550     -2.701294      0.940371
H       2.199061      0.459911     -0.551711
H       0.928040     -0.575475     -1.190400
H       0.706321      1.476271      1.068528
H      -0.483321      2.592212     -0.604856
