16
Extracted from Q-Chem output
C       1.748514     -0.744170      0.644146
C       1.452316      0.364018     -0.355106
C      -0.842876     -0.428660     -1.000021
C      -2.165548     -0.645344     -0.426184
C      -0.052028      0.695505     -0.424004
C      -0.531521      1.295282      0.836597
N      -0.937430      1.721534      1.822386
H       1.231251     -1.665095      0.362605
H       2.816989     -0.959037      0.678892
H       1.431450     -0.467293      1.652136
H       2.003453      1.270463     -0.095128
H       1.752499      0.060781     -1.358785
H      -2.751921      0.061786     -1.046840
H      -2.572713     -1.629382     -0.655423
H      -2.333490     -0.357030      0.618546
H      -0.181680      1.452402     -1.215527
