14
Extracted from Q-Chem output
C       2.005796      0.455491     -0.467307
O       0.616171      0.261866     -0.355074
C       0.240608     -0.381296      0.833136
C      -1.240024     -0.556726      0.907867
C      -2.166561      0.102070      0.122566
O      -3.389513      0.183369      0.054926
H       2.188053      0.944806     -1.422107
H       2.541200     -0.500919     -0.445141
H       2.381969      1.092931      0.341019
H       0.584253      0.201691      1.702792
H       0.727070     -1.365593      0.901597
H      -1.603807     -1.172543      1.725238
H      -1.427715     -0.260368     -0.841150
H      -1.530718      0.798497     -0.647129
