15
smiles: [C:3](=[C:4]([H:10])[H:11])([H:8])[H:9].[O:1]=[C:2]=[C:7]([C:6](=[C:5]([H:12])[H:13])[H:14])[H:15]
O        0.55912100      -0.67323600       2.43420800
C        1.18872900      -0.46447700       1.49016700
C       -1.40776200      -1.30273100      -0.58641200
C       -2.39846200      -0.66590600       0.01397900
C        0.63960900       1.77768600      -0.41363600
C        1.65679100       0.92377500      -0.46985500
C        1.90418800      -0.21602100       0.41407800
H       -0.76130100      -0.80454100      -1.29986300
H       -1.20170200      -2.34866100      -0.38920000
H       -2.60449600       0.38004400      -0.18319700
H       -3.04495900      -1.16398400       0.72748100
H        0.56680700       2.59615600      -1.11663800
H       -0.15046000       1.69320800       0.32520400
H        2.41041700       1.05560700      -1.23893100
H        2.70711500      -0.91328800       0.21766800
