20
Extracted from Q-Chem output
C      -0.684053      3.019748      0.303711
C      -0.584675      1.519816      0.545532
N      -0.403543     -1.463571     -1.055717
C      -0.363304     -2.893476     -0.857760
C       0.278319     -0.686635     -0.325842
C       1.192966     -1.114088      0.804121
C       0.165601      0.794952     -0.573873
H      -1.203095      3.232223     -0.633770
H      -1.229894      3.517268      1.107309
H       0.307323      3.475808      0.243212
H      -0.090771      1.337720      1.505566
H       0.139760     -3.354214     -1.712119
H       0.131935     -3.232724      0.058169
H      -1.386685     -3.273615     -0.855069
H       1.715758     -0.257100      1.226901
H       0.631976     -1.593776      1.609201
H       1.940544     -1.828776      0.455585
H      -1.586758      1.088571      0.628237
H      -0.352926      0.937895     -1.523075
H       1.170363      1.223796     -0.670033
