20
Extracted from Q-Chem output
C      -0.603180      3.009084      0.746393
C      -0.573798      1.507111      0.869358
N      -0.558211     -1.540489     -0.920703
C      -0.490072     -2.914544     -0.469332
C       0.281953     -0.706954     -0.470685
C       1.403184     -1.015404      0.483597
C       0.136072      0.706521     -0.953886
H      -1.327057      3.469905      0.064948
H      -0.875683      3.324308      1.761809
H       0.386881      3.428622      0.555348
H      -1.597983      1.093020      0.877413
H       0.518952     -3.335869     -0.537235
H      -0.815396     -2.999074      0.573240
H      -1.156625     -3.524752     -1.077441
H       1.844938     -0.100655      0.869719
H       1.041623     -1.596991      1.332405
H       2.171437     -1.609880     -0.020659
H      -0.802072      1.243036     -0.535503
H      -0.231372      0.705161     -1.988494
H       1.035251      1.307670     -0.880005
