14
smiles: [C-:1]([O+:2]=[C:3]([C:4]([C:5](=[O:6])[H:13])([H:11])[H:12])[H:10])([H:7])[H:9].[H:8][H:14]
C        1.35633000      -1.49042700      -0.77534000
O        0.10522700      -1.63253000      -1.07029100
C       -0.95242700      -1.22993900      -0.42729100
C       -0.82069400      -0.54980300       0.87939300
C       -0.33726200       0.86786800       0.64139700
O        0.79716000       1.23074500       0.80037300
H        1.66168900      -0.88369700       0.06322500
H        0.24947400       4.18474400      -0.49200700
H        2.03042700      -1.96180100      -1.47016800
H       -1.87726900      -1.51355600      -0.90009400
H       -0.09989500      -1.06927300       1.52891000
H       -1.79800500      -0.52326800       1.36423700
H       -1.10071600       1.55675900       0.22707200
H        0.55817700       3.57834300      -0.18974400
