13
smiles: [C:1]([O:2][C:3](=[C:6]=[O:7])[H:11])([H:8])([H:9])[H:10].[C:4](=[O:5])([H:12])[H:13]
C        2.72895300      -0.09921800      -0.55921500
O        1.71367500      -1.07815300      -0.42058200
C        0.52074100      -0.56071700       0.02542600
C       -3.16098600       0.73418200       0.88842200
O       -2.06397900       0.59317900       1.34284500
C       -0.51953500      -0.50729900      -0.78153100
O       -1.45068000      -0.48213300      -1.46984200
H        2.44888400       0.65569600      -1.30032500
H        3.62527300      -0.62180400      -0.88999400
H        2.92977400       0.39650900       0.39670300
H        0.40865800      -0.23081900       1.05192200
H       -3.39941500       0.46868000      -0.15948000
H       -3.99731300       1.13840200       1.49072300
