16
Extracted from Q-Chem output
C       1.120160      1.188146     -0.318198
C       1.007549     -0.049110      0.509555
C      -0.429484     -0.483166      0.940699
C      -1.233085     -0.407674     -0.361358
C      -0.185060     -0.562529     -1.474122
C      -0.580669      0.612993      1.885853
N       1.103094     -0.117091     -0.937119
H       2.072603      1.701225     -0.363332
H       0.245950      1.824175     -0.389468
H       1.837877     -0.419441      1.095023
H      -0.346652     -1.500220      1.338293
H      -2.002905     -1.178154     -0.412614
H      -1.734815      0.559512     -0.407110
H      -0.064105     -1.609598     -1.758882
H      -0.038377      0.312453      2.804512
H      -0.427297      0.001268     -2.376565
