13
Extracted from Q-Chem output
O      -2.808798     -0.721095      0.117616
C      -1.667145     -0.406144      0.000195
C      -0.908457      0.909244      0.162613
C       0.384951      0.075746      0.202737
C       2.609729      0.760656     -0.403576
O       1.386473      0.522008     -0.731566
C      -0.376408     -1.178432     -0.262337
H      -1.155241      1.529427      1.022528
H      -0.961582      1.508069     -0.749727
H       2.698772      0.554677      0.699620
H       0.848658     -0.006277      1.187710
H      -0.232310     -1.353470     -1.331151
H      -0.229946     -2.108630      0.283797
