13
Extracted from Q-Chem output
O      -2.748451     -0.545104      0.117344
C      -1.580705     -0.345194      0.005465
C      -0.703599      0.898097      0.178123
C       0.504672     -0.030862     -0.016249
C       2.309241      0.418412      0.144778
O       1.477199      0.289852     -0.973556
C      -0.386819     -1.247662     -0.316654
H      -0.807611      1.408689      1.134828
H      -0.818384      1.615536     -0.636168
H       2.084755      1.439693      0.550551
H       1.108558     -0.244983      0.949553
H      -0.341409     -1.529756     -1.369799
H      -0.276196     -2.134279      0.305432
