9
Extracted from Q-Chem output
N       3.115967      0.127061      0.027343
C       1.971123      0.171405      0.072089
C       0.542699      0.180521      0.108540
C      -0.325055     -0.862324     -0.174639
N      -1.557568     -0.431647      0.085335
N      -1.414021      0.923890      0.476554
N      -0.159602      1.271427      0.434928
H      -0.121604     -1.864325     -0.515302
H      -2.047303      0.543016     -0.518309
