15
Extracted from Q-Chem output
C      -1.561330      0.563822      0.271303
C      -1.100123     -0.375806     -0.834620
C       0.296992     -0.928484     -0.629122
N       1.626344      0.053203      1.570345
C       1.866126      0.522017      0.425408
O       1.274995      0.121308     -0.700097
H      -2.584255      0.899717      0.093156
H      -1.525405      0.073418      1.245615
H      -0.926013      1.449426      0.326149
H      -1.139397      0.132545     -1.802372
H      -1.777547     -1.232732     -0.905217
H       0.558356     -1.620392     -1.431089
H       0.386656     -1.438575      0.329923
H       2.203119      0.509585      2.266265
H       2.584539      1.310507      0.191169
