14
Extracted from Q-Chem output
C       1.228878     -1.114264     -0.185618
C       0.639728      0.163507      0.300747
O       1.606873      1.386937      0.016197
C      -0.652917      0.670135     -0.008589
O      -0.782763      1.875799     -0.280568
C      -1.842568     -0.245812      0.020433
H       0.535508     -1.927591      0.035287
H       2.169256     -1.346321      0.313778
H       1.405351     -1.101475     -1.266722
H       1.334462      1.047672      1.043747
H       0.871362      2.032120     -0.235299
H      -2.082131     -0.540281     -1.004291
H      -2.699435      0.291414      0.423754
H      -1.662020     -1.144408      0.608693
