10
Extracted from Q-Chem output
O      -1.703041     -1.072838     -0.064364
C      -0.623964     -0.262924     -0.028061
C      -0.427528      1.085108     -0.056253
N       0.923408      1.349725      0.010247
C       1.512975      0.194839      0.075732
N       0.609925     -0.832292      0.055795
H      -2.496206     -0.535810     -0.106284
H      -1.165535      1.868901     -0.122003
H       2.576264      0.023688      0.139030
H       0.793702     -1.818396      0.096161
