10
Extracted from Q-Chem output
O      -1.685496     -1.057333     -0.049218
C      -0.565626     -0.323524     -0.045260
C      -0.310687      1.008417     -0.123524
N       1.063235      1.166196     -0.201443
C       1.671856     -0.075646     -0.111223
N       0.633620     -0.962327      0.024118
H      -2.447338     -0.484839     -0.161047
H      -0.997352      1.837449     -0.174078
H       1.847837      0.886846      0.733235
H       0.741274     -1.958004      0.108994
