17
Extracted from Q-Chem output
C       2.343314     -0.254419      0.147121
C       0.923156     -0.592292     -0.289759
C      -0.045777     -0.436353      0.859821
C      -0.615585      0.898111      1.191450
N      -1.423724     -0.018605      0.642444
C      -2.252181      0.020308     -0.389621
H       2.408397      0.788575      0.463927
H       2.660380     -0.879629      0.985770
H       3.054110     -0.405725     -0.666560
H       0.621262      0.057181     -1.112329
H       0.881118     -1.622051     -0.658440
H       0.035777     -1.212320      1.623046
H      -0.731075      1.724880     -0.266144
H      -0.730649      1.478715      2.093566
H      -1.243384      1.484795     -0.939267
H      -3.132442      0.643548     -0.295711
H      -2.313608     -0.857780     -1.021981
