12
Extracted from Q-Chem output
O      -0.296629      1.737049     -0.770470
C      -0.108392      0.661851      0.125022
C      -1.174015     -0.367581     -0.263187
C      -1.258506     -2.308376      1.433719
N      -1.228099     -1.437461      0.663052
C       1.246722      0.106991      0.051924
C       2.359582     -0.327546     -0.011134
H       0.483355      2.294980     -0.753612
H      -0.296541      0.977404      1.159049
H      -2.140355      0.136893     -0.287161
H      -0.958319     -0.757513     -1.258112
H       3.346395     -0.724470     -0.062886
