16
Extracted from Q-Chem output
C       2.084726     -0.089962     -0.331383
C       0.978845     -0.081872      0.670481
C      -0.567092      1.167039     -0.123056
C      -1.315300     -0.066623      0.357952
O      -2.378989     -0.499990     -0.457103
C      -0.155198     -1.046754      0.359216
H       2.724559      0.791063     -0.271112
H       1.791262     -0.269254     -1.375871
H       2.699102     -0.948187     -0.028738
H       0.394519      1.120389      0.671929
H      -0.287944      1.112088     -1.172859
H      -0.974284      2.147320      0.133128
H      -1.657059      0.099955      1.386020
H      -3.142106      0.059670     -0.302238
H      -0.242022     -1.851514      1.090809
H      -0.089411     -1.491759     -0.643766
