9
Extracted from Q-Chem output
O      -1.446641      1.494791     -1.253273
C      -0.828615      0.293880     -1.184896
C       0.065198     -0.075373     -0.310477
C       0.984920     -0.461095      0.529318
C       0.507537     -1.606144      2.760277
N       0.696659     -1.083090      1.735116
H      -1.141206      2.057693     -0.536049
H      -1.159695     -0.381390     -1.965438
H       2.044593     -0.321404      0.344260
