9
Extracted from Q-Chem output
O      -1.511890      1.202452     -0.595373
C      -0.717985      0.230518     -0.872208
C       0.659478      0.302343     -0.779382
C       1.458201     -0.149057      0.037957
C      -0.582243     -1.156114      1.313172
N       0.438840     -1.351787      1.845097
H      -1.034815      1.941241     -0.190357
H      -1.207087     -0.638272     -1.296753
H       2.299115     -0.439164      0.629822
