19
smiles: [C:1](=[C:2]([C@@:3]([C:4]([C:5]([H:16])([H:17])[H:18])([H:14])[H:15])([C:6](=[O:7])[H:19])[H:13])[H:12])([H:9])[H:10].[H:8][H:11]
C       -2.59103900      -0.37825500      -0.24395100
C       -1.48415300       0.12804100      -0.76315000
C       -0.24227300       0.44987400       0.01946400
C        0.98722000      -0.25657100      -0.57764500
C        2.25377000      -0.06767200       0.24640900
C       -0.01589600       1.94551000      -0.00466800
O        0.10245700       2.63888400       0.96600700
H       -0.15558000      -2.65619900       1.80372500
H       -2.67442700      -0.59235900       0.81621800
H       -3.45363200      -0.59816900      -0.86075600
H       -0.66616000      -2.49180100       1.28734000
H       -1.44082100       0.33134300      -1.83188400
H       -0.37079400       0.15761400       1.06465800
H        1.14508900       0.10750100      -1.59930300
H        0.75147800      -1.31984600      -0.66863900
H        3.09663000      -0.58588800      -0.21299500
H        2.12673300      -0.46298300       1.25636700
H        2.52258300       0.98655200       0.34088600
H        0.04889900       2.38766400      -1.02453900
