19
Extracted from Q-Chem output
C      -2.557946     -0.374485      0.206324
C      -1.255708     -0.660033     -0.312848
C      -0.073474      0.146234      0.184920
C       1.277564     -0.314873     -0.376454
C       2.468425      0.332226      0.316825
C      -0.328538      1.582154     -0.234116
O      -0.109469      2.534175      0.459423
H      -1.676656     -1.609165      0.392008
H      -2.653234      0.068728      1.186846
H      -3.438709     -0.660558     -0.346397
H      -0.695042     -2.049687      0.114950
H      -1.218242     -0.946235     -1.361015
H      -0.056587      0.128256      1.277022
H       1.308178     -0.103493     -1.451735
H       1.331976     -1.402094     -0.275661
H       3.404758     -0.019550     -0.118240
H       2.480238      0.085004      1.380456
H       2.444771      1.420035      0.233273
H      -0.694807      1.710402     -1.275141
