10
Extracted from Q-Chem output
N       2.032981     -0.154942      0.020354
C       0.666200     -0.174880     -0.038691
C       0.050355      0.970560      0.624408
N      -2.467849      0.854484      0.103016
C      -2.544268     -0.262784     -0.136211
O       0.033732     -1.083152     -0.557624
H       2.491703     -0.985652     -0.316311
H       2.493025      0.355062      0.754182
H      -0.149286      1.772327     -0.095979
H      -2.601606     -1.305765     -0.360011
