13
Extracted from Q-Chem output
C       1.634370      0.334942     -0.422606
N       0.423120      0.355913      0.361136
C      -0.613875      1.197828      0.266380
C      -0.369958     -0.717965      0.745723
C      -1.353704     -1.236308     -0.168581
O      -2.081138     -2.182654      0.038191
H       2.163888      1.280966     -0.312794
H       1.422429      0.158253     -1.482356
H       2.265573     -0.474935     -0.057120
H      -1.124081      1.498020      1.169743
H      -0.837825      1.729048     -0.660441
H      -0.148022     -1.263025      1.661436
H      -1.367550     -0.706500     -1.151433
