13
Extracted from Q-Chem output
C      -0.895932     -1.169796     -0.432065
C      -0.031973      0.031125     -0.135951
C       1.366422     -0.030375     -0.699012
O      -0.355000      1.218007      2.200119
C      -0.369078      0.944323      0.908455
N      -0.737636      1.420835     -0.181864
H      -0.457022     -2.077379     -0.010200
H      -1.896833     -1.048291     -0.018753
H      -0.983374     -1.312527     -1.512132
H       1.923268      0.879228     -0.475824
H       1.328191     -0.154409     -1.784263
H       1.913514     -0.881030     -0.285154
H      -0.773824      2.078031      2.334343
