16
Extracted from Q-Chem output
C       2.039572     -0.101127     -0.000602
C       0.608782      0.418082      0.155740
C      -0.408887     -0.616991     -0.313503
N      -1.752475     -0.147868     -0.055497
C      -2.556081     -0.074253     -1.018419
C       0.379229      0.762718      1.610270
O       0.504764      1.861532      2.072482
H       2.211868     -0.978464      0.628837
H       2.761621      0.665385      0.281171
H       2.233858     -0.388732     -1.035507
H       0.488487      1.341665     -0.416002
H      -0.238832     -0.856518     -1.373566
H      -0.268003     -1.539995      0.260434
H       0.124760     -0.100899      2.263232
H      -3.569098      0.282370     -0.842719
H      -2.288147     -0.355412     -2.045315
