16
Extracted from Q-Chem output
C       2.216161     -0.359514      0.203510
C       1.039065      0.499258     -0.209609
C      -0.081179     -0.159613     -1.055045
N      -0.991948      0.112762      0.047552
C      -2.389265     -0.147392      0.232050
C      -0.056376      0.690043      0.852132
O      -0.115604      1.144915      1.963458
H       1.877690     -1.318167      0.603306
H       2.793536      0.141465      0.981390
H       2.879386     -0.556693     -0.640798
H       1.368787      1.456191     -0.617867
H      -0.340201      0.354117     -1.984760
H       0.065567     -1.225712     -1.253608
H      -2.665411      0.198793      1.227568
H      -2.993701      0.385892     -0.506759
H      -2.606505     -1.216346      0.157481
