14
Extracted from Q-Chem output
C      -1.084621      0.235549     -0.999539
C      -0.094655      0.452125      0.110661
O       0.162469      1.796227      0.414328
C       0.000138     -0.537728      1.243968
C       1.106913     -0.426739      0.242896
O       1.288781     -1.515335     -0.607685
H      -2.074671      0.595699     -0.708254
H      -1.166734     -0.822242     -1.247855
H      -0.773304      0.782595     -1.892133
H      -0.596653      2.150265      0.883275
H       0.185579     -0.159641      2.240635
H      -0.617890     -1.424621      1.183369
H       2.015597      0.069077      0.573705
H       1.649051     -1.195231     -1.437372
