14
Extracted from Q-Chem output
C      -0.968683      0.257992     -0.970576
C      -0.336701      0.606090      0.207634
O       0.222323      1.865729      0.319330
C      -0.058216     -0.388863      1.289770
C       1.096934     -0.707496      0.412398
O       1.088889     -1.626771     -0.450369
H      -1.640787     -0.590268     -0.963461
H      -0.024446     -0.488368     -1.865118
H      -1.223569      1.058132     -1.654732
H      -0.079849      2.262847      1.138796
H       0.191829      0.051839      2.250970
H      -0.789177     -1.188444      1.368300
H       1.946728     -0.020126      0.464376
H       0.563777     -1.123618     -1.567974
