18
Extracted from Q-Chem output
C      -1.580906      0.943981      0.818054
C      -0.831626      0.150209     -0.236251
C      -1.137289     -1.246591     -0.391383
C       0.811282      0.149926      0.254514
C       1.385455     -1.034697     -0.468246
C       1.682585      1.191604     -0.079386
H      -1.089499      1.908765      0.982052
H      -2.613957      1.133831      0.521618
H      -1.601244      0.407671      1.770466
H      -0.831882      0.677272     -1.191778
H       0.288216     -1.692733     -0.451705
H      -1.502753     -1.794097      0.473976
H      -1.464797     -1.635914     -1.348088
H       0.757629     -0.029715      1.330035
H       2.234370     -1.532406     -0.002512
H       1.544474     -0.881127     -1.536466
H       1.863969      1.423203     -1.122964
H       2.153473      1.835550      0.654306
