14
smiles: [C:1](/[C:2](=[C:4]1\[C:5]([H:13])([H:14])[O:6]1)[H:10])([H:7])([H:8])[H:9].[O:3]([H:11])[H:12]
C        1.13816200      -1.03451600       1.57736200
C        0.31289000       0.15385500       1.18895200
O        0.34283500       1.63006300      -2.51675700
C       -0.60717700       0.11627200       0.25271400
C       -1.41701900      -0.46299900      -0.77475100
O       -1.50448800       0.92990500      -0.34530800
H        0.86513200      -1.91167900       0.98914300
H        2.20328400      -0.84450500       1.42343800
H        1.00238400      -1.28150300       2.63317100
H        0.47379700       1.09689800       1.70021300
H       -0.34812200       1.77719500      -1.86973300
H        1.15519900       1.57035400      -2.01237500
H       -2.28044800      -1.06705000      -0.51529900
H       -1.01720000      -0.59836800      -1.77451300
