14
Extracted from Q-Chem output
C       1.195424     -0.657737      0.899500
C       0.333341      0.439992      0.372685
O       1.390161      1.121484     -0.958958
C      -0.718946      0.149995     -0.553689
C      -1.889792     -0.689673     -0.386880
O      -2.016704      0.729273     -0.396690
H       1.321087     -1.440250      0.151984
H       2.174320     -0.302956      1.216083
H       0.686685     -1.091409      1.765839
H       0.254554      1.334654      0.987957
H       1.328340      2.085308     -0.979687
H       0.450490      0.695024     -1.415337
H      -2.110785     -1.155381      0.572640
H      -2.309915     -1.202434     -1.248299
