12
Extracted from Q-Chem output
C      -0.055010     -1.985711     -0.715660
C      -0.796364      0.439780      0.538174
C      -0.022023     -0.578787     -0.204918
C       1.030475     -0.951225     -0.838725
C      -0.085070      1.705377      0.702949
C       0.503321      2.738624      0.834718
H      -0.668352     -2.230809     -1.583186
H       0.067446     -2.815223     -0.018764
H      -1.743965      0.613445      0.018476
H      -1.065869      0.037077      1.519526
H       2.012982     -0.737719     -1.218871
H       1.025914      3.658525      0.949988
