12
Extracted from Q-Chem output
C      -1.371862     -1.328695     -1.429853
C      -0.306973      0.140579      0.950658
C       0.919655     -0.633244      0.743193
C       1.913156     -1.277541      0.575987
C      -0.244077      1.488296      0.385211
C      -0.209807      2.588067     -0.082659
H      -1.008164     -0.440898     -1.985780
H      -0.564784     -2.067714     -1.599487
H      -1.163631     -0.396685      0.508773
H      -0.519094      0.201918      2.021540
H       2.801432     -1.845807      0.431199
H      -0.176517      3.567200     -0.498640
