11
Extracted from Q-Chem output
N      -1.887325     -0.380277     -0.149796
C      -0.541528     -0.053179     -0.143873
C       0.049152      1.128697      0.262862
O       1.337654      1.002146      0.375169
C       1.674011     -0.396307     -0.063743
O       2.777869     -0.639007     -0.481703
N       0.404530     -0.975935     -0.341096
H      -2.114485     -1.117024     -0.798160
H      -2.512937      0.403540     -0.234079
H      -0.409816      2.036104      0.631815
H       1.238739     -0.983311      0.958180
