16
Extracted from Q-Chem output
N       2.258369     -0.329831      2.631936
C       1.792993      0.162502      1.491983
O       1.099675     -0.798067      0.889121
C       0.480441     -0.425822     -0.343985
C      -0.946592      0.027499     -0.105097
C      -1.702522      0.266654     -1.395184
O      -1.055821      1.303368     -2.111821
H       2.079482     -1.280760      2.932859
H       2.821855      0.258013      3.215419
H       1.069795      0.360330     -0.814038
H       0.504735     -1.320222     -0.971443
H      -1.474025     -0.734372      0.475980
H      -0.933473      0.945869      0.487820
H      -1.725794     -0.657905     -1.989471
H      -2.739713      0.539411     -1.164888
H      -1.525066      1.455554     -2.932581
