11
Extracted from Q-Chem output
O       2.227050      0.834256     -0.231474
C       1.087981      0.455869     -0.120273
C       0.573579     -0.966170      0.089997
C      -0.916376     -0.797583      0.155831
C      -1.200113      0.492970      0.006594
N      -0.035722      1.250332     -0.159603
H       1.012052     -1.375996      1.002872
H       0.909618     -1.596008     -0.737110
H      -1.634170     -1.588543      0.301255
H      -2.162837      0.981930     -0.000117
H       0.008643      2.245214     -0.283532
