10
Extracted from Q-Chem output
N       2.034474      0.907783     -0.007051
C       1.256945      0.092793      0.417214
C       0.351929     -0.882551      0.771861
C      -0.782932     -0.564454     -0.170296
C      -0.124238      0.736884     -0.548548
H       0.291998     -1.320565      1.756000
H      -1.739679     -0.356801      0.315552
H      -0.940769     -1.269654     -0.989418
H      -0.428735      1.613711      0.006306
H       0.199592      0.929377     -1.564364
