18
Extracted from Q-Chem output
C      -1.883997     -0.584965      0.200244
C      -0.820880      0.246507     -0.402843
C       0.416536      0.656370      0.299927
C       0.295286      1.091874      1.745969
N       0.928400     -0.672379      0.117221
C       1.430515     -0.916291     -1.279595
O       2.574053     -0.416249     -1.504234
H      -1.618483     -0.966470      1.182973
H      -2.798899      0.016694      0.267831
H      -2.124239     -1.433278     -0.444089
H       0.519036     -0.449138     -1.844593
H      -1.048305      0.671887     -1.373740
H       0.999152      1.383363     -0.272936
H      -0.203527      2.058818      1.814656
H      -0.261916      0.371309      2.346245
H       1.294354      1.192339      2.172588
H       1.497745     -1.040304      0.874939
H       1.279740     -2.005888     -1.458687
