23
smiles: [C:1]([C:2]([C@@:3]([C:4]([H:14])([H:15])[H:16])([C:5][C:7]([H:21])([H:22])[H:23])[H:13])([H:11])[H:12])([H:8])([H:9])[H:10].[C:6]([H:17])([H:18])([H:19])[H:20]
C        2.48356200      -0.35600900      -0.84631000
C        1.59967800      -0.01205500       0.34168400
C        0.30042800      -0.83618200       0.42185300
C       -0.33713000      -0.75724500       1.81409500
C       -0.52816900      -0.71316600      -0.79057700
C       -1.08605900       2.48093100      -0.65849600
C       -1.95005900      -1.06347900      -0.65135100
H        2.83699100      -1.38926300      -0.78401800
H        3.36162300       0.29157000      -0.88035400
H        1.93186600      -0.24899000      -1.77984300
H        2.15789600      -0.15337500       1.27212400
H        1.32822200       1.04801400       0.30907400
H        0.59394900      -1.89372100       0.22630300
H        0.40892700      -0.95147100       2.58625800
H       -0.74439600       0.24061200       1.99585900
H       -1.14282200      -1.47899000       1.94858900
H       -0.64235700       1.68218800      -1.25077100
H       -1.91049600       2.92891100      -1.21118500
H       -1.45905700       2.07276100       0.27967400
H       -0.33351200       3.23994400      -0.45044300
H       -2.55722500      -0.63195900      -1.44779100
H       -1.93582200      -2.14623400      -0.86515700
H       -2.43383600      -0.92983300       0.32351200
