23
Extracted from Q-Chem output
C       2.481780     -0.264356     -0.888218
C       1.662070      0.042576      0.356371
C       0.283790     -0.630747      0.391240
C      -0.327399     -0.536499      1.793951
C      -0.558865     -0.306805     -0.809665
C      -1.128676      1.865518     -0.423081
C      -1.958405     -0.831407     -0.806486
H       2.678096     -1.336830     -0.971010
H       3.445170      0.248484     -0.858779
H       1.952498      0.041431     -1.790534
H       2.219973     -0.265805      1.246354
H       1.525142      1.125494      0.453982
H       0.452300     -1.702989      0.184263
H       0.315327     -1.031997      2.524514
H      -0.427763      0.505591      2.107383
H      -1.310374     -1.005103      1.853160
H      -0.552705      1.008257     -1.076323
H      -1.869001      2.224939     -1.135574
H      -1.603009      1.559008      0.501397
H      -0.354004      2.607747     -0.240931
H      -2.544023     -0.425353     -1.631797
H      -1.853150     -1.905411     -0.999692
H      -2.537060     -0.732181      0.121740
