16
Extracted from Q-Chem output
C       1.796412      0.355609      0.661408
C       0.791119      0.240100     -0.415488
N      -0.578375     -1.627957     -0.223671
C      -1.038350     -0.726775      0.860555
C      -0.608492      0.151888     -0.257859
O      -0.408363      1.899572     -0.463644
C      -1.228730     -0.762098     -1.240877
H       2.377368     -0.570441      0.685669
H       2.490771      1.163930      0.429182
H       1.354514      0.524652      1.640631
H       1.161146      0.216250     -1.435542
H      -0.457577     -0.762425      1.779311
H      -2.114998     -0.752126      1.052179
H      -0.399885      2.297621      0.414304
H      -0.808985     -0.818018     -2.243130
H      -2.321631     -0.794445     -1.241275
