20
Extracted from Q-Chem output
C      -1.121049      1.949775      0.596232
C      -0.763515      0.497990      0.863203
N      -1.505353     -0.485268      0.197262
C      -0.511871     -1.727274     -0.713694
C       0.237246     -0.203246      0.005277
C       1.318899     -0.875968      0.827508
C       0.733547      0.553770     -1.203072
H      -2.026497      2.198578      1.153235
H      -0.329895      2.626926      0.930718
H      -1.324634      2.124474     -0.459413
H      -0.576960      0.341118      1.939209
H       0.408647     -1.832834     -1.303487
H      -0.559293     -2.542819     -0.002442
H      -1.329119     -1.769852     -1.421624
H       1.954966     -0.103385      1.266261
H       0.887738     -1.460552      1.639894
H       1.943395     -1.530435      0.214549
H      -0.090353      0.842070     -1.853428
H       1.428245     -0.060248     -1.781250
H       1.261716      1.456853     -0.889375
