17
Extracted from Q-Chem output
C      -2.668565     -0.603912     -0.740372
C      -1.312930     -0.352718     -1.377698
N      -0.299419     -0.028764     -0.380285
C       0.678162     -0.821998     -0.063969
C       1.591749     -0.282752      0.969772
C       2.665315      0.643715      0.548537
N       1.645801      1.097999      1.487534
H      -3.014830      0.267993     -0.180063
H      -2.614376     -1.451557     -0.055733
H      -3.413677     -0.824591     -1.505969
H      -1.370520      0.470240     -2.095957
H      -0.460407      0.859027      0.099503
H      -0.948527     -1.236767     -1.897846
H       1.861572     -1.018110      1.719565
H       3.663005      0.534041      0.956436
H       2.625687      1.011466     -0.472342
H       0.994905      1.717932      1.018474
