17
Extracted from Q-Chem output
C      -2.022379     -0.245527     -0.130838
C      -1.070819     -0.318276     -1.296247
N      -0.054128      0.717289     -1.482796
C       0.751309     -0.431242     -1.105401
C       1.138659     -0.524041      0.338609
C       2.160093      0.448675      0.787771
N       0.850972      0.431276      1.422844
H      -2.679832      0.621410     -0.235505
H      -1.501924     -0.173866      0.823553
H      -2.653071     -1.135418     -0.103847
H      -1.532580     -0.570782     -2.250822
H      -0.153252      1.380624     -0.713682
H      -0.309384     -1.283691     -1.258220
H       1.248654     -1.541746      0.695376
H       2.986597      0.114014      1.402190
H       2.394978      1.263129      0.109044
H       0.292756      1.216681      1.107365
