19
Extracted from Q-Chem output
C       2.543408     -0.560778     -0.073313
O       1.194429     -0.938084      0.008670
C       0.378872      0.068615      0.531124
C       0.071366      1.315021     -0.324217
C      -1.385670      1.218364      0.179352
C      -1.126577     -0.255679      0.578008
C      -1.581809     -1.258869     -0.467052
H       2.944507     -0.292349      0.913375
H       2.685882      0.292148     -0.748773
H       3.099141     -1.413164     -0.461912
H       0.743039      0.366866      1.525253
H       0.626051      2.230756     -0.120231
H       0.149077      1.079715     -1.387031
H      -2.175032      1.391376     -0.552814
H      -1.565297      1.858636      1.043497
H      -1.496731     -0.553303      1.561011
H      -2.672530     -1.317537     -0.480947
H      -1.246426     -0.978943     -1.467818
H      -1.185700     -2.252790     -0.256182
