16
smiles: [C:1]([C+:2]1[C:3]([H:11])([H:12])[C@:4]1([C-:5]([O:6][H:16])[H:14])[H:13])([H:7])([H:8])[H:9].[H:10][H:15]
C       -1.03671700      -0.15108300       1.64318400
C       -0.89126000       0.04283000       0.16117800
C       -0.32451400       1.24816100      -0.30992500
C        0.50765100      -0.10129900      -0.55786300
C        1.58354200      -0.30573300       0.25533400
O        2.62393600      -1.09859200      -0.02038300
H       -0.84508500      -1.18399300       1.94073500
H       -0.42438600       0.51512400       2.27440500
H       -2.07852300       0.06542600       1.89329100
H       -1.80466400      -0.51092300      -2.18450600
H       -0.53717900       1.61310400      -1.31142100
H        0.10333000       2.00879500       0.35579600
H        0.53399700      -0.47477200      -1.57802400
H        1.62798400       0.08756700       1.26205300
H       -1.79691400      -0.49400300      -2.92888000
H        2.55555800      -1.42778400      -0.92250900
