16
Extracted from Q-Chem output
C       1.659013     -0.335839      1.184103
C       1.348477     -0.137140     -0.274298
C       0.184924     -0.955839     -0.718604
C      -0.515032      0.366542     -0.493680
C      -1.555990      0.429837      0.603396
O      -0.929318      0.906544     -1.712577
H       2.452250     -1.092983      1.150830
H       2.097554      0.545525      1.652652
H       0.862289     -0.742892      1.823040
H       0.418016      1.032447     -0.182397
H       0.170663     -1.250192     -1.764253
H      -0.163880     -1.752717     -0.057438
H      -2.424664     -0.164016      0.315809
H      -1.879970      1.459580      0.770539
H      -1.165921      0.039663      1.543118
H      -1.085024      1.848104     -1.608030
