14
smiles: [C:1]([O:6][H:14])([H:7])([H:8])[H:9].[C:2]1([H:10])=[C:5]([H:13])[C:3]1([O:4][H:12])[H:11]
C        1.40661500      -0.79811500      -1.73254700
C       -0.73943700       0.51942000       2.26570000
C       -1.31727600       0.77585800       0.93022200
O       -0.64615000       1.54217700      -0.03695300
C       -0.76124800      -0.49076200       1.44947000
O       -0.00202600      -0.88869100      -1.71774200
H        1.78257100      -1.73056900      -2.15216300
H        1.76199000       0.02751300      -2.35953500
H        1.82564600      -0.68291400      -0.72636600
H       -0.45346000       0.91759700       3.22537200
H       -2.38367100       0.91875900       0.78131900
H        0.29884500       1.42569600       0.08714700
H       -0.50745800      -1.52005100       1.25576200
H       -0.35851200      -0.07695000      -1.35593900
