14
Extracted from Q-Chem output
C       1.493336     -0.481338     -0.876423
C       0.212963     -0.001461      1.145739
C      -1.027889      0.700648      0.754466
O      -1.038320      1.567402     -0.376708
C      -0.799311     -0.734950      0.420547
O      -0.376224     -0.907576     -0.955575
H       1.915954     -1.269215     -0.274093
H       1.454210     -0.701997     -1.939131
H       1.865879      0.501271     -0.643634
H       0.453446     -0.171423      2.188833
H      -1.805696      0.969095      1.464250
H      -0.282709      2.153073     -0.291964
H      -1.421954     -1.559667      0.740964
H      -0.700024     -0.096632     -1.393680
