14
Extracted from Q-Chem output
C       1.559798      0.557567      0.068132
C       0.481846     -0.485826      0.109291
O      -0.242569     -0.504543      1.405263
C      -1.693998     -0.534320      0.416767
C      -0.760067     -0.313019     -0.755348
O      -0.900197      0.985114     -1.301404
H       1.132812      1.557270      0.156143
H       2.295046      0.389394      0.857475
H       2.068060      0.508848     -0.895616
H       0.886907     -1.494101      0.029404
H      -0.275105      0.382923      1.776826
H      -1.904487     -1.601406      0.548948
H      -0.816588     -1.036114     -1.574541
H      -1.645960      1.365035     -0.822751
