15
Extracted from Q-Chem output
C      -1.382109     -1.279451      0.451738
N      -0.190443     -0.484781      0.282366
C       1.047165     -0.841686      0.473707
C       1.941029      0.166925      0.036597
C       1.186316      1.156267     -0.507630
C      -0.276644      0.836315     -0.364739
N      -1.333269      0.947551     -1.200809
H      -2.082415     -0.752007      1.097363
H      -1.851618     -1.385905     -0.526549
H      -1.116998     -2.244664      0.880822
H       1.290712     -1.771032      0.972590
H       3.008741      0.147007      0.192035
H       1.523751      2.108784     -0.889834
H      -0.285715      1.492715      0.605599
H      -1.420806      1.901635     -1.527450
