10
Extracted from Q-Chem output
O      -2.256510      0.004359      0.170531
C      -1.058909     -0.102822      0.104348
C       0.027925      0.860072      0.564373
C       1.260636      0.107867      0.184663
N       1.011465     -1.016961     -0.362703
N      -0.355299     -1.156415     -0.419007
H      -0.056437      1.046479      1.636751
H      -0.070344      1.820717      0.055300
H       2.284963      0.422220      0.328995
H      -0.750359     -1.988361     -0.817914
