14
Extracted from Q-Chem output
C       2.453307     -0.260007     -0.245623
N       1.250519      0.327301      0.287123
C       0.047572     -0.164966      0.089090
N      -0.546374     -0.883150     -0.872033
N      -1.846093     -0.460767     -0.747481
C      -2.109590      0.387840      0.219334
C      -0.893514      0.576969      0.948853
H       2.310857     -0.535307     -1.296687
H       3.266414      0.463202     -0.185276
H       2.759956     -1.160356      0.298698
H       0.334997      1.214799      0.947090
H      -2.507521     -0.798613     -1.427994
H      -3.121402      0.718953      0.401041
H      -0.936041      0.353481      2.013830
