16
Extracted from Q-Chem output
C      -1.101942     -0.942319      0.189468
C      -0.445744      0.329961     -0.332230
C      -0.286349      1.381392      0.772315
C       0.862406      0.103100     -1.038782
C       1.464794     -1.057236     -1.244053
O       0.592702      0.999329      1.807862
H      -1.319719     -1.638822     -0.621132
H      -0.457416     -1.468670      0.898845
H      -2.044348     -0.711744      0.691329
H      -1.128679      0.786381     -1.061880
H       0.135686      2.296202      0.350952
H      -1.277580      1.631808      1.174261
H       1.341128      1.008188     -1.407297
H       1.048840     -1.996729     -0.898906
H       2.411294     -1.108402     -1.767709
H       0.245548      0.215064      2.236118
