16
Extracted from Q-Chem output
C      -1.626756     -0.846466     -0.083645
C      -0.770323      0.328326     -0.525615
C      -0.242344      1.173559      0.554132
C       0.568211     -0.004872     -1.163403
C       1.519545     -0.548634     -0.244460
O       1.532531      0.454692      0.955144
H      -1.924595     -1.435817     -0.950973
H      -1.072960     -1.506324      0.589318
H      -2.526479     -0.513575      0.441028
H      -1.320770      0.959473     -1.227604
H       0.058001      2.179697      0.299802
H      -0.490310      1.013349      1.600400
H       0.937105      0.682201     -1.916825
H       1.235840     -1.486333      0.249800
H       2.532819     -0.616407     -0.635239
H       1.631109     -0.005364      1.807303
