13
Extracted from Q-Chem output
C      -0.830544     -0.981568     -0.005917
C       0.274562     -0.033548      0.269926
C       1.553726     -0.165702     -0.455717
O       0.300560      0.693812      1.320724
C      -1.139847      1.740942     -0.659961
N      -1.865691      1.979338      0.220028
H      -0.493261     -1.940128      0.412604
H      -1.763741     -0.674538      0.453948
H      -0.968758     -1.105082     -1.077097
H       2.361846      0.324444      0.080850
H       1.406222      0.336990     -1.414918
H       1.781193     -1.212976     -0.656658
H      -0.613896      1.036571      1.489136
