11
smiles: [H:7][H:10].[N:1](=[C:2]1[C:3]([H:9])=[N:4][N:5]=[C:6]1[H:11])[H:8]
N       -1.78293200      -0.08171100      -0.58316800
C       -0.54175500       0.13202400      -0.51909800
C        0.65003100      -0.73213500      -0.72316900
N        1.72254100      -0.07611200      -0.55069200
N        1.38304500       1.30360700      -0.21146500
C        0.11852400       1.41811400      -0.19440000
H       -0.28796200      -0.79334800       2.47827300
H       -1.98180100      -1.05269900      -0.82514800
H        0.65358200      -1.78324700      -0.98387200
H        0.43712800      -0.92233200       2.36825200
H       -0.38151000       2.34975400       0.03280300
