11
Extracted from Q-Chem output
N      -1.824453     -0.333614     -0.266149
C      -0.470310     -0.025334     -0.079934
C       0.618705     -0.855589     -0.195161
N       1.710765     -0.073952      0.003787
N       1.408860      1.193928      0.239298
C       0.087066      1.242921      0.188627
H      -2.436496      0.243532      0.288171
H      -2.037808     -1.305288     -0.106116
H       0.697966     -1.910174     -0.403903
H       2.672613     -0.356412     -0.010403
H      -0.426908      2.179981      0.341783
