14
Extracted from Q-Chem output
O       1.268388      1.734301     -1.033879
C       1.780398      0.906580     -0.094592
C       1.086251      0.068122      0.668860
C      -0.990385     -1.442170      0.383821
C      -1.063743     -0.429849     -0.717295
C      -0.391196     -0.085414      0.594068
H       2.857420      1.000572     -0.027029
H       1.634337     -0.521712      1.393604
H      -0.303495     -2.268363      0.252744
H      -1.900541     -1.688673      0.914055
H      -0.429995     -0.594018     -1.580003
H      -2.025465      0.015826     -0.937568
H       0.314314      1.605807     -1.064992
H      -0.964004      0.569868      1.244495
