7
Extracted from Q-Chem output
O      -1.677488     -0.689800     -0.681423
C      -0.931192     -0.225192      0.247938
C       0.274622      0.606756     -0.088063
O       0.174020      1.751854     -0.424447
C       1.568177     -0.051825      0.161458
N       2.551221     -0.617719      0.332623
H      -1.959108     -0.886968      0.457443
