12
Extracted from Q-Chem output
O       1.903501      0.171926     -0.822523
C       1.083793     -0.501951      0.096922
C      -0.241226      0.189111      0.285555
O      -0.030020      1.502855      0.670261
C      -1.460500     -0.525546      0.644004
O      -1.238794     -0.003360     -0.676294
H       1.924807      1.097335     -0.563783
H       1.567337     -0.590439      1.078920
H       0.908770     -1.504252     -0.293837
H      -2.220852     -0.007808      1.221749
H      -1.473531     -1.609655      0.714136
H      -0.811605      2.013807      0.444101
