16
Extracted from Q-Chem output
C       1.982403     -0.249782      0.655768
C       0.592102     -0.633040      0.279333
C      -0.103017      1.103299     -0.273881
C      -0.538652      0.191056      0.821283
C      -1.657300     -0.477158      0.012547
C      -0.762361     -0.456101     -1.250226
H       2.112408      0.747745      1.107191
H       2.680302     -0.361269     -0.175579
H       2.273953     -1.002045      1.397690
H       0.837616      1.638472     -0.210049
H      -0.857633      1.662640     -0.808738
H      -0.586716      0.498129      1.865510
H      -1.912498     -1.481357      0.347658
H      -2.562498      0.126350     -0.097614
H      -1.114477      0.143586     -2.090386
H      -0.416227     -1.407408     -1.628166
