16
Extracted from Q-Chem output
C      -1.840878      0.750975      0.601885
C      -1.523909     -0.668077      0.160418
N      -0.230830     -0.811381     -0.526222
C       0.858744     -0.604854      0.267620
O       1.132944     -0.859331      1.379743
O       1.340372      1.189767     -0.290654
C       2.297054      0.414166     -0.730171
H      -1.860296      1.433656     -0.249183
H      -2.818050      0.778487      1.087429
H      -1.093625      1.116569      1.306421
H      -1.512747     -1.349019      1.011676
H      -2.273960     -1.039625     -0.539927
H      -0.174239     -0.255275     -1.367344
H       2.550534      0.439414     -1.806206
H       3.185306      0.254826     -0.095085
H       1.897720     -0.817419     -0.653416
