13
smiles: [H:7][H:13].[O:1]1[C:2]([H:8])([H:9])[C:3]([H:10])([H:11])[N:4]([H:12])[C:5]1=[O:6]
O       -0.15877000      -0.10298500       1.09825800
C       -0.95738600      -0.53821400       0.00035100
C       -0.78194900       0.54857500      -1.06326600
N        0.50320300       1.06857800      -0.65897400
C        0.74277900       0.81837500       0.66963100
O        1.58641900       1.29537800       1.36850100
H        1.24336300      -2.30186500       1.59753100
H       -1.98473200      -0.65210600       0.34038800
H       -0.57930600      -1.50244500      -0.34773300
H       -1.57234300       1.30459100      -1.00554300
H       -0.76215100       0.13325500      -2.07092700
H        0.89429700       1.90823100      -1.04599900
H        1.40278200      -3.00882200       1.42648800
