13
Extracted from Q-Chem output
O      -0.353041     -0.544631      1.185155
C      -1.131910     -0.610787      0.016773
C      -0.661449      0.576154     -0.830283
N       0.775059      0.687196     -0.592815
C       1.040965      0.433606      0.761969
O       1.458387      1.100137      1.630837
H       0.754035     -1.142054      1.037586
H      -2.190526     -0.541851      0.275088
H      -0.965749     -1.555198     -0.515508
H      -1.144293      1.496629     -0.500054
H      -0.849166      0.447428     -1.894570
H       1.310612      0.066667     -1.182511
H       1.687985     -0.992682      0.775355
