15
Extracted from Q-Chem output
C      -0.543466      2.012630     -0.236492
C      -0.303117      0.532186     -0.088700
C      -1.190624     -0.487398     -0.693304
C      -1.245135     -0.386782      0.600572
O       1.097146      0.342758     -0.018142
C       1.571272     -0.888564      0.423865
O       1.585053     -1.884257     -0.560724
H      -0.028983      2.389053     -1.122286
H      -0.153777      2.548794      0.630490
H      -1.608558      2.220590     -0.333909
H      -1.557924     -0.954428     -1.593125
H       0.697923     -2.238362     -0.653310
H      -1.690047     -0.728611      1.521148
H       0.999953     -1.221359      1.301672
H       2.609472     -0.723503      0.707043
