15
Extracted from Q-Chem output
C      -0.562431      1.908037     -0.287674
C      -0.161362      0.478033     -0.127386
C      -0.850730     -0.706044     -0.650037
C      -0.775780     -0.572309      0.724440
O       1.298520      0.390401      0.029713
C       1.576417     -0.882653      0.365351
O       1.457669     -1.765502     -0.593010
H      -0.211587      2.294888     -1.245516
H      -0.135235      2.520728      0.507397
H      -1.648461      1.995692     -0.262080
H      -1.639521     -0.898905     -1.358183
H       0.462256     -1.583333     -0.932867
H      -1.486700     -0.628035      1.538540
H       0.394865     -1.076037      1.123598
H       2.360900     -1.052424      1.095905
