15
smiles: [C:4](=[C:5]([H:14])[H:15])([H:12])[H:13].[O:1]([C:2]([C@@:3]1([H:11])[C-:6]=[O+:7]1)([H:9])[H:10])[H:8]
O        1.52568600       0.14444200      -0.69132500
C        1.28518400      -1.24272700      -0.56751300
C        0.21299700      -1.45566000       0.44433500
C       -1.27292100       1.92495900       0.37814500
C       -1.59010900       1.68604100      -0.88263700
C        0.24917600      -2.60274800       1.40594500
O        0.62429300      -1.46240000       1.84632300
H        2.20824300       0.28557900      -1.34904200
H        2.18911500      -1.78312400      -0.26275300
H        0.93584100      -1.67222100      -1.51602700
H       -0.72748800      -0.93844500       0.29089800
H       -1.99828300       2.31416400       1.08358300
H       -0.27461700       1.74007200       0.75830900
H       -0.86491400       1.29656000      -1.58808200
H       -2.58852600       1.87067100      -1.26266100
