10
Extracted from Q-Chem output
O      -1.375415      1.753963      0.075236
C      -0.574412      0.861322      0.068246
C      -0.787502     -0.638753      0.130440
N       0.562702     -1.210852      0.178182
C       1.459662     -0.215801      0.081166
N       0.809583      0.987384      0.003021
H      -1.349951     -0.922075      1.020806
H      -1.337392     -0.999889     -0.739472
H       1.484958     -1.187493     -0.717754
H       1.272973      1.877321     -0.058317
