13
Extracted from Q-Chem output
O       1.227242      1.910178      0.813467
C       0.725097      0.939785      0.322633
C       1.528492     -0.225851     -0.256321
O       0.653403     -1.250306     -0.657431
C      -1.030660     -0.434064     -0.789403
C      -1.472588     -0.451795      0.614693
C      -0.734438      0.750533      0.068127
H       2.212178     -0.621606      0.496078
H       2.117784      0.163397     -1.093383
H      -0.079066     -1.001171     -1.489630
H      -0.975669     -1.119699      1.305491
H      -2.534676     -0.324003      0.789602
H      -1.281985      1.671095     -0.088398
