19
smiles: [C:1](=[C:2]([H:11])[H:12])([H:8])[H:10].[O:3]([C:4]([C:5]1([H:15])[C:6]([H:16])([H:17])[C:7]1([H:18])[H:19])([H:13])[H:14])[H:9]
C        2.65395400       1.05403300       0.01854800
C        2.61147900      -0.07520700       0.70442400
O        0.45666400      -1.20802400      -1.53908100
C       -0.90612600      -0.84295600      -1.44062900
C       -1.36289300      -0.69060100      -0.01767400
C       -2.50236900       0.22481300       0.30390700
C       -1.10626700       0.60640300       0.69701600
H        3.38155800       1.21473400      -0.76884800
H        0.96505500      -0.59264000      -1.00634500
H        1.96270900       1.86527600       0.21642100
H        1.88385900      -0.23578100       1.49183900
H        3.30263600      -0.88654500       0.50662600
H       -1.10228600       0.09050900      -1.98824800
H       -1.46274700      -1.63803300      -1.94088500
H       -1.27997800      -1.59285300       0.57811300
H       -2.96025700       0.76609100      -0.51490300
H       -3.19216800      -0.07048700       1.08283500
H       -0.63187100       1.40700800       0.14092900
H       -0.84129900       0.57317900       1.74538900
