19
Extracted from Q-Chem output
C       2.706403      0.710047     -0.005645
C       2.478520     -0.674237     -0.184597
O       0.806556     -0.645793      0.541404
C      -0.293048     -0.831455     -0.326965
C      -1.566876     -0.363720      0.315442
C      -2.691939      0.125911     -0.546029
C      -1.907652      1.093410      0.290043
H       2.697390      1.345751     -0.883146
H       1.367429      0.435751      0.482250
H       3.358292      1.022957      0.800599
H       2.899458     -1.402261      0.498220
H       2.237564     -1.068990     -1.167248
H      -0.135750     -0.277581     -1.267767
H      -0.363262     -1.895220     -0.576545
H      -1.840179     -0.909894      1.210904
H      -2.537296      0.144781     -1.618037
H      -3.704432     -0.111321     -0.247932
H      -1.218468      1.756601     -0.219417
H      -2.381519      1.524620      1.161395
