14
Extracted from Q-Chem output
C      -1.598269     -0.084623      0.009004
C      -0.374121      0.082538     -0.858055
O       0.112031      1.247077     -1.037809
C       1.168352     -0.944333      0.026110
C       1.288012     -0.028238      1.049631
O       1.555635      1.206950      0.834865
H      -2.455928      0.282185     -0.562137
H      -1.778923     -1.128714      0.265409
H      -1.523414      0.516365      0.914698
H      -0.325017     -0.614551     -1.703074
H       0.991331      1.439238     -0.106545
H       1.761276     -0.803576     -0.867429
H       0.900059     -1.963591      0.274554
H       1.002550     -0.293009      2.071874
