13
Extracted from Q-Chem output
O      -2.971443      0.360197      0.639141
C      -1.955312     -0.274995      0.599235
C      -0.579851      0.334216      0.745382
N       0.424577     -0.535144      0.175449
C       0.758551     -0.296889     -1.217242
C       1.699707      0.074338     -0.136394
H      -1.961320     -1.376110      0.465995
H      -0.389467      0.437819      1.819777
H      -0.596774      1.346924      0.316332
H       0.243744      0.512771     -1.727320
H       0.934681     -1.180706     -1.817711
H       2.572823     -0.535404      0.061657
H       1.820086      1.132982      0.075699
