13
Extracted from Q-Chem output
O      -2.712321     -0.727703      1.288509
C      -1.529719     -0.574029      1.105873
C      -0.963353      0.436293      0.220202
N       0.366142      0.619740      0.216175
C       1.224301      0.777571     -0.783062
C       1.451958     -0.347746      0.139288
H      -0.783108     -1.238063      1.589952
H      -1.583043      1.269778     -0.087563
H      -0.667958     -0.155153     -1.520043
H       1.729442      1.621718     -1.220650
H       0.123651      0.106090     -1.787025
H       1.192595     -1.339331     -0.237110
H       2.152094     -0.321024      0.966741
