13
Extracted from Q-Chem output
O       0.374285     -2.601361     -0.403641
C       0.201363     -1.422401     -0.212934
C      -1.163509     -0.762739     -0.003208
C      -0.871563      0.728791      0.174595
C       0.620410      0.806224      0.077379
O       1.168293      2.016864      0.209489
C       1.219428     -0.374819     -0.135837
H      -1.637957     -1.210088      0.870797
H      -1.800158     -0.977897     -0.861608
H      -1.203378      1.124479      1.136852
H      -1.324616      1.352857     -0.598824
H       2.278522     -0.563297     -0.244400
H       2.124678      1.957251      0.130915
