12
smiles: [C:1]([C:2](=[O:4])[H:8])([H:5])([H:6])[H:7].[C:3]([H:9])([H:10])([H:11])[H:12]
C       -1.47717100      -0.54176600       0.68486300
C       -1.49359700       0.38445800      -0.49341500
C        2.08741900       0.19969600      -0.22272000
O       -1.48277500       1.58196300      -0.41907100
H       -2.36578900      -1.17800300       0.65790300
H       -0.60996200      -1.20360200       0.61535700
H       -1.44746900       0.01924600       1.61681900
H       -1.51795600      -0.11238500      -1.48666900
H        1.69952800      -0.44362600      -1.01103800
H        3.11140400       0.48526100      -0.45922600
H        2.07040000      -0.33673900       0.72470800
H        1.47000400       1.09335200      -0.14615800
