12
Extracted from Q-Chem output
C      -1.135408     -0.568249      0.623270
C      -0.548633      0.320219     -0.438645
C       1.365642      0.073862     -0.193494
O      -0.729334      1.627218     -0.343677
H      -2.218309     -0.528877      0.476603
H      -0.806842     -1.604721      0.540376
H      -0.916660     -0.173942      1.614673
H      -0.595166     -0.122407     -1.446371
H       1.431783     -0.845179     -0.767104
H       2.077928      0.787430     -0.627727
H       1.578390     -0.089112      0.860061
H       0.503772      1.112458     -0.272805
