13
Extracted from Q-Chem output
C       1.582943     -0.551787     -0.231266
C       0.318573      0.127456     -0.665821
C      -0.529105      0.756571      0.429347
N      -0.002983      0.134344     -1.888712
C      -1.479339     -0.261616      1.014717
O      -2.670080     -0.129995      1.033167
H       2.054577     -1.039337     -1.081071
H       2.274124      0.178676      0.197479
H       1.379654     -1.293334      0.546329
H       0.116687      1.113717      1.238207
H      -1.113222      1.592588      0.045212
H      -0.883970      0.624828     -2.037793
H      -1.007340     -1.174029      1.434515
