9
Extracted from Q-Chem output
C      -1.130361     -0.287858     -0.058120
C       0.188757      0.318437     -0.437962
C       1.384014     -0.166502      0.027769
N       2.410392     -0.436900      0.597145
H      -1.860846      0.481107      0.199709
H      -1.026304     -0.953475      0.799244
H      -1.548210     -0.876154     -0.880884
H       1.381803      0.654110      0.869950
H       0.252093      1.117356     -1.164187
