16
smiles: [C:1]([O:2][C:3]([C:4]([N:5]=[O:6])=[C:7]([H:14])[H:16])([H:11])[H:12])([H:8])([H:9])[H:10].[H:13][H:15]
C        1.99845800      -0.22651000      -0.03678700
O        1.25744300      -0.24111700       1.16077500
C        0.06976100       0.50109800       1.09140300
C       -1.07264000      -0.28456300       0.50392300
N       -2.29507000       0.39078800       0.16983900
O       -2.29333200       1.56664400       0.42396200
C       -1.09211200      -1.59214300       0.27590300
H        2.89108400      -0.82722800       0.13029200
H        1.43518200      -0.65318100      -0.87545000
H        2.29881400       0.79453700      -0.30075800
H        0.20555400       1.42602800       0.51804100
H       -0.18899100       0.80100900       2.10984500
H       -0.67604900       1.45891600      -2.17101800
H       -0.24006000      -2.21761000       0.50749300
H       -0.05560800       1.15287400      -2.44630700
H       -1.98327500      -2.04182900      -0.14352000
