15
smiles: [C:1]([C:2]([O:3][H:11])=[C:4]([H:12])[H:13])([H:8])([H:9])[H:10].[O:5]([C:6]#[C:7][H:15])[H:14]
C       -0.27061700      -1.65354000       0.27240600
C       -1.05251000      -0.43386000      -0.08209400
O       -1.20965000      -0.33457400      -1.43038400
C       -1.53666100       0.44914900       0.78594600
O        1.30229800       1.65834000       0.86191100
C        1.98863200       1.22871000      -0.16151700
C        2.66604400       0.86892000      -1.07782300
H       -0.77913700      -2.54479300      -0.10049600
H       -0.14566100      -1.73837800       1.34980300
H        0.71283900      -1.61656800      -0.20036700
H       -1.71506200       0.45631300      -1.63356700
H       -1.37989000       0.31622000       1.84603100
H       -2.09759000       1.31921000       0.46399800
H        0.41221200       1.29414600       0.83980700
H        3.26641500       0.54845100      -1.89381500
