15
Extracted from Q-Chem output
C      -0.064883     -1.634717      0.132106
C      -0.509517     -0.205515     -0.115434
O      -1.352778     -0.113312     -1.243938
C      -1.050960      0.517735      1.008838
O       0.311481      1.830621      0.554961
C       0.760426      0.761480     -0.295461
C       1.869980      0.761769     -0.909966
H      -0.929570     -2.298642      0.168881
H       0.504334     -1.719640      1.058153
H       0.581385     -1.940987     -0.692656
H      -0.793663      0.093594     -1.997975
H      -0.758408      0.257849      2.017237
H      -1.904631      1.167724      0.878432
H       1.082878      2.341118      0.866606
H       2.377364      0.053961     -1.543857
