11
Extracted from Q-Chem output
O      -1.432744      0.413759     -0.322040
C      -1.473876      0.584266      0.917560
N      -0.377547      0.787591      1.559814
C       0.679249      0.549256     -0.339200
C       0.960741     -0.836053     -0.394783
C       1.232354     -2.002069     -0.458984
H      -2.446602      0.550867      1.423350
H      -0.404999      0.895860      2.566357
H       0.369080      1.007257     -1.266203
H       1.376586      1.139392      0.231882
H       1.470590     -3.037576     -0.524539
