14
Extracted from Q-Chem output
C      -1.138071      0.239439     -0.918743
C      -0.026000      0.489336      0.071998
O       0.120896      1.850934      0.397271
C       0.116701     -0.437737      1.240015
C       1.306682     -0.147509     -0.174288
O       1.183938     -1.221978     -1.013939
H      -2.090812      0.591365     -0.515414
H      -1.235562     -0.818365     -1.156301
H      -0.933784      0.784484     -1.841202
H      -0.714858      2.157986      0.758633
H       0.225615      0.028237      2.213516
H      -0.380497     -1.398738      1.189832
H       1.435893     -0.565132      1.044254
H       2.063441     -1.581194     -1.138866
