15
smiles: [C:1]([C@:2]1([C:6]#[N:7])[C:4]([H:12])([H:13])[N:5]1[H:14])([H:8])([H:9])[H:10].[O:3]([H:11])[H:15]
C        0.38288500       1.34768600      -0.76437800
C        0.24193400      -0.12694500      -0.47167000
O       -0.20291300       0.22963300       2.70855500
C       -0.58405600      -0.99082700      -1.35166500
N       -1.03227000      -0.66843100      -0.00614600
C        1.40500000      -0.72117800       0.16758600
N        2.34737600      -1.16562900       0.64741900
H        0.50706700       1.91350300       0.16008300
H       -0.50712600       1.71277800      -1.27991800
H        1.24881100       1.53553100      -1.39995800
H        0.68561500      -0.05574600       2.92546600
H       -0.30484500      -2.02552300      -1.50571900
H       -1.05591700      -0.50432700      -2.19851700
H       -1.73496900       0.06149900      -0.01400600
H       -0.56189300      -0.45915000       2.14783400
