14
Extracted from Q-Chem output
C       1.726221      0.241301     -0.466066
C       0.876612     -0.303075      0.642338
O       0.308559      0.610996      1.533456
C      -0.870239      0.098521      0.928869
C      -1.382203      1.034400     -0.136760
O      -2.317082      0.392582     -0.967453
H       1.207887      0.991975     -1.058598
H       2.049166     -0.566257     -1.124287
H       2.611293      0.709905     -0.032425
H       1.307038     -1.150960      1.179894
H      -0.141432     -0.876908      0.261198
H      -0.640558      1.508574     -0.783708
H      -1.840592      1.842505      0.457714
H      -2.802190     -0.227256     -0.413694
