17
Extracted from Q-Chem output
C      -2.148240     -0.234541      0.228134
C      -0.982599      0.534435     -0.352182
C      -0.052916      1.307069      0.547958
C       0.843907      0.547964     -0.350036
C       0.413375     -0.807600     -0.478232
C       2.606397     -1.148701      0.034030
O       2.744388      0.054650      0.195249
H      -2.972391      0.457277      0.426377
H      -1.889946     -0.718494      1.170005
H      -2.507200     -0.999530     -0.462149
H      -1.236625      1.049770     -1.272660
H      -0.017571      2.386648      0.456823
H      -0.070140      0.976407      1.584224
H       1.149644      1.050375     -1.259596
H       0.405241     -1.327442     -1.422993
H       0.108653     -1.368395      0.390145
H       3.551048     -1.713803      0.231151
