8
smiles: [C:2](#[C:3][H:7])[H:6].[O:1]=[C:5]=[N:4][H:8]
O        1.32357900       1.53167600       0.06196400
C       -1.89170000       0.61493000      -0.08804300
C       -1.72464000      -0.56785700      -0.07471900
N        1.69007500      -0.80318500       0.08059100
C        1.57067000       0.39852000       0.07279000
H       -2.03921200       1.66939000      -0.09998500
H       -1.57704400      -1.62232400      -0.06277700
H        2.55963500      -1.30263100       0.10499700
