11
Extracted from Q-Chem output
C      -1.599938      0.832220      0.176307
N       1.027828      0.932784     -0.336315
C       0.496657     -0.175916     -0.068304
O      -0.798757     -0.344838      0.201646
C       1.227829     -1.501466     -0.004223
O       2.402937     -1.583165     -0.214044
H      -2.610988      0.510171      0.411675
H      -1.242221      1.550731      0.914795
H      -1.561675      1.296382     -0.809848
H       2.022361      0.793583     -0.502756
H       0.603254     -2.377019      0.247918
