11
Extracted from Q-Chem output
C      -1.437464      1.215143      0.086366
N       0.645451      0.737429     -0.034904
C       0.308799     -0.497813      0.019839
O      -0.911635     -0.777816      0.141559
C       1.303851     -1.644501     -0.065099
O       2.480356     -1.474549     -0.203683
H      -2.203891      0.793321      0.718868
H      -1.016575      2.137312      0.451074
H      -1.644506      1.189393     -0.972658
H       1.625320      0.970474     -0.150849
H       0.850295     -2.648393      0.009487
