16
smiles: [C:1](=[C:2]([H:11])[H:12])([H:8])[H:9].[C:3](=[O:4])([H:13])[H:14].[C:5](=[O:6])([N:7]([H:15])[H:16])[H:10]
C       -1.94724400      -0.19478800      -0.56554200
C       -2.55106000       0.88225700      -0.09363500
C        0.59862000       1.58950200       0.70898100
O        1.41327700       1.76643100      -0.14832800
C        1.69555400      -1.84242500      -0.72334100
O        1.78619200      -3.04239900      -0.64842800
N        2.61749000      -0.96763300      -0.25735900
H       -1.91165800      -1.12024900      -0.00215500
H       -1.46321200      -0.19651700      -1.53555400
H        0.82880000      -1.33881900      -1.18926400
H       -2.58654100       1.80759800      -0.65723800
H       -3.03516500       0.88415300       0.87632700
H       -0.12473600       2.37518500       1.00023100
H        0.52434500       0.63026400       1.25643800
H        3.45198500      -1.32011700       0.17819600
H        2.49436800       0.02189700      -0.35846900
