13
Extracted from Q-Chem output
C      -1.702709      0.064167      0.359086
C      -0.539892     -0.364740     -0.535170
C       0.726688     -0.596887      0.234322
C       1.856873      0.092842      0.132105
O       2.115500      1.136770     -0.695579
H      -1.483921      1.011202      0.855839
H      -1.887386     -0.680597      1.136119
H      -2.623153      0.182453     -0.215926
H      -0.812620     -1.283611     -1.063742
H      -0.396600      0.385650     -1.320797
H       1.339350      1.323067     -1.230051
H       0.718175     -1.398066      0.964912
H       2.722346     -0.138126      0.740832
