14
Extracted from Q-Chem output
C       0.906414      0.494279      0.219488
C       1.174098     -0.873636     -0.407009
O       0.380090     -1.914988      0.092304
C      -2.019838     -0.402812      0.402964
O      -1.538642      0.767128      0.613553
C      -0.389292      1.173347     -0.189436
H       0.953760      0.423640      1.309943
H       1.715594      1.164875     -0.087207
H       1.076581     -0.785649     -1.500394
H       2.211215     -1.149294     -0.202467
H      -2.871632     -0.472536      1.110636
H      -0.555352     -1.671998     -0.049572
H      -0.337177      2.249459     -0.030707
H      -0.640149      0.972415     -1.232291
