13
Extracted from Q-Chem output
C       1.281672     -0.754134     -0.143806
C       0.001619     -0.123919      0.264678
C      -0.435269      1.217422     -0.210901
N       0.020072      1.495587     -1.456810
C      -0.979151     -0.794804      1.066971
O      -2.163375     -0.498893      1.087692
H       1.197621     -1.378598     -1.038228
H       2.026320      0.016776     -0.362687
H       1.632651     -1.411008      0.656697
H      -1.538716      0.910853     -0.179939
H      -0.348536      2.033203      0.514798
H      -0.175733      0.690336     -2.051237
H      -0.577551     -1.547028      1.770370
