9
Extracted from Q-Chem output
O      -2.071993      1.022468      0.211816
C      -1.034056      0.735148     -0.309607
C      -0.256634     -0.527214      0.007492
C       2.232511     -0.468833     -0.380349
C       1.181302     -0.209963      0.325583
H      -0.570885      1.388158     -1.077165
H      -0.298885     -1.170869     -0.875744
H      -0.737551     -1.044331      0.837306
H       1.445202      0.321483      1.246040
