11
Extracted from Q-Chem output
N      -1.957876     -0.522847      0.132639
C      -0.660034     -0.104490     -0.075276
C      -0.504456      1.259488      0.415591
O       2.002546      1.315237      0.518508
C       2.618036      0.345881      0.339955
O       3.295342     -0.575699      0.197819
N       0.304062     -0.784475     -0.565597
H      -2.374434     -1.158708     -0.523515
H      -2.571187      0.055833      0.679877
H      -0.233561      1.916495     -0.421992
H       0.061891     -1.767178     -0.661662
