18
smiles: [C:1]([C:2](/[C:3]([C:4]([H:14])([H:15])[H:16])=[N:5]/[C:6](=[O:7])[H:18])([H:11])[H:12])([H:8])([H:9])[H:10].[H:13][H:17]
C       -1.96723500      -0.80247600      -0.61185700
C       -1.28238500       0.32313400       0.14087400
C        0.17735200       0.10172200       0.43225900
C        0.90094900       1.24753100       1.08602900
N        0.72094300      -0.99265600       0.10488200
C        2.02641300      -1.35455200       0.36956000
O        2.45448100      -1.67010200       1.44890300
H       -1.49726800      -0.96822000      -1.58173300
H       -1.90611500      -1.73824900      -0.05633200
H       -3.01962300      -0.56624600      -0.77511300
H       -1.37209800       1.27109500      -0.40165100
H       -1.77542400       0.49891900       1.10389300
H        0.69639200       1.25158500      -2.74587300
H        1.05383700       2.04190200       0.35058800
H        0.29676500       1.66736100       1.89152500
H        1.86461800       0.94512300       1.48930800
H        0.70345100       0.59635900      -2.39226200
H        2.64027300      -1.42008900      -0.54741100
