16
Extracted from Q-Chem output
C      -2.458865      0.022214      0.804313
C      -1.265034     -0.517726      0.028670
C      -0.001300      0.307547      0.237183
C       1.190954     -0.216234     -0.555068
C       2.466400      0.487074     -0.233607
O       3.216798      0.478253     -1.309688
H      -2.696348      1.044438      0.499401
H      -2.255592      0.038844      1.877880
H      -3.349644     -0.587722      0.643975
H      -1.070614     -1.554106      0.326011
H      -1.505726     -0.550703     -1.039382
H       0.262484      0.330648      1.298536
H       1.401332     -1.252459     -0.243754
H       0.990490     -0.249684     -1.634264
H      -0.194874      1.346979     -0.048206
H       4.055629      0.898887     -1.093451
