17
Extracted from Q-Chem output
C       2.291806     -0.442561      0.910905
O       0.925777     -0.493426      0.573456
C       0.707103     -0.538959     -0.831786
C      -0.657031     -0.592963     -1.325007
C      -1.700603     -0.436061     -0.299109
C      -1.915815      1.090599     -0.107378
O      -0.771290      1.784773      0.320066
H       2.826825     -1.319115      0.526463
H       2.362699     -0.433897      1.997550
H       2.767808      0.461861      0.512669
H       1.108777      0.371221     -1.317480
H       1.264534     -1.374612     -1.283491
H      -2.233394      1.539563     -1.050063
H      -2.657305     -0.832823     -0.644966
H      -1.447070     -0.865865      0.677835
H      -2.733947      1.199823      0.613472
H      -0.234719      1.191262      0.858426
