12
Extracted from Q-Chem output
C       1.292276     -0.639326      0.752983
C      -0.182671      0.386292     -1.077205
C      -1.016410     -0.601684     -0.361386
N       0.071026      0.065743      0.379443
C      -0.729184      1.691063     -1.217157
N      -1.126257      2.764566     -1.372685
H       2.086911      0.089037      0.906933
H       1.564598     -1.289585     -0.074464
H       1.130792     -1.221141      1.661754
H      -2.003742     -0.365276      0.029500
H      -0.845482     -1.659221     -0.538262
H      -0.258825      0.727945      1.071896
