13
Extracted from Q-Chem output
N       1.404805     -0.775722      1.458042
C       1.895404     -0.321203      0.472150
C       1.300398      0.282219     -0.689941
C      -0.242606      0.479288     -0.012318
C      -0.326144     -0.535294      1.084448
C      -1.399576      0.207146     -0.760395
H       1.280988     -0.403376     -1.537337
H       1.700193      1.246676     -0.993672
H      -0.228230      1.493673      0.386102
H      -0.830041     -0.226502      1.994680
H      -0.581102     -1.546139      0.781021
H      -1.568079     -0.790467     -1.148089
H      -2.107461      0.974027     -1.048948
