16
Extracted from Q-Chem output
C       2.020930     -0.056604     -0.105191
C       0.653840      0.060833      0.358706
C      -0.394248      1.092192     -0.051765
C      -1.469028      0.030270      0.338343
O      -2.414013     -0.317578     -0.648935
C      -0.332786     -0.947263      0.465268
H       1.197434     -1.130317     -1.483402
H       2.607535     -0.895936      0.254060
H       2.572443      0.846251     -0.348123
H       1.222545      0.290868      1.339732
H      -0.395235      1.261437     -1.129787
H      -0.399827      2.044769      0.479797
H      -1.985854      0.266414      1.278975
H      -3.158775      0.283043     -0.585002
H      -0.306210     -1.950064      0.871923
H       0.450219     -1.381677     -1.270738
