11
Extracted from Q-Chem output
O      -2.043134      1.075797      0.198113
C      -1.680448      0.113285     -0.418951
C      -0.275043     -0.422237     -0.398420
C       0.644946      0.390542      0.507316
C       2.004914     -0.139718      0.508302
N       3.066732     -0.572921      0.492432
H       0.672643      1.432794      0.185637
H      -2.387835     -0.451026     -1.059054
H      -0.317132     -1.470841     -0.086581
H       0.094279     -0.438598     -1.429013
H       0.266350      0.393220      1.530668
