11
Extracted from Q-Chem output
O      -0.957242      1.517834     -0.292391
C      -1.291499      0.294830     -0.416008
C      -0.320214     -0.813173     -0.304344
C       0.653509     -0.428893      0.751398
C       1.846007      0.195716      0.396622
N       2.815763      0.737536      0.049353
H       0.001488      1.524012     -0.029398
H      -2.365673      0.160566     -0.547601
H      -0.881984     -1.727272     -0.090737
H       0.144023     -0.958218     -1.291853
H       0.386583     -0.552901      1.789244
