13
Extracted from Q-Chem output
O       0.210037      0.108171      2.428763
C       0.639292     -0.924789      0.045882
C      -0.557071     -0.892333     -0.910367
C      -1.187361      0.416993     -1.034125
C      -1.691738      1.499540     -1.123842
C       0.740520     -0.058515      1.223522
C       1.540930      0.279328      0.271819
H       0.574145      0.905263      2.825668
H       1.081811     -1.923552      0.086085
H      -1.305266     -1.617614     -0.576695
H      -0.228250     -1.221240     -1.900797
H      -2.147430      2.457473     -1.206917
H       2.283222      0.917004     -0.169661
