11
Extracted from Q-Chem output
N      -1.416552      0.437875      0.241112
C      -0.893739     -0.819273      0.496567
O      -1.607557     -1.749986      0.822833
C       0.538111     -1.004929      0.361559
C       1.299860      0.890381     -0.889492
O       1.388448     -0.201869     -0.223846
H      -0.847906      1.238731      0.468973
H      -2.378429      0.517130      0.533654
H       0.996454     -1.896123      0.756153
H       0.340541      1.315217     -1.143724
H       2.239673      1.253720     -1.272766
