17
smiles: [C:1]([C:2](=[O:3])[H:11])([H:8])([H:9])[H:10].[C:4](=[C:5]([C:6]([O:7][H:17])([H:15])[H:16])[H:14])([H:12])[H:13]
C        2.85862200      -0.37638900      -0.70507300
C        2.46439900       0.98270500      -0.21149600
O        1.34187200       1.31033600       0.05753500
C       -2.69165600       0.97439700      -0.07235300
C       -2.53155300      -0.07060600       0.72326100
C       -1.43801100      -1.09072500       0.60078900
O       -0.47178400      -0.80297800      -0.38087300
H        3.34250900      -0.28334500      -1.68092600
H        1.98862300      -1.02595200      -0.77893800
H        3.59651000      -0.81039700      -0.02529900
H        3.29825300       1.70797300      -0.09905700
H       -2.02710600       1.15426400      -0.90955700
H       -3.50171800       1.67653700       0.07830000
H       -3.22545800      -0.23826300       1.54358000
H       -1.87167300      -2.05603000       0.32425200
H       -0.97088200      -1.23112400       1.58592000
H       -0.04666600       0.02656800      -0.15231600
