17
Extracted from Q-Chem output
C       2.080333     -0.110946     -0.467972
C       0.767791      0.262435      0.172714
O       0.022748      1.101018     -0.701990
C      -1.282608      1.206731     -0.150825
C      -1.524689     -0.093716      0.643456
C      -0.216890     -0.873858      0.457780
O      -0.289322     -1.798835     -0.607698
H       2.664674      0.785352     -0.677005
H       1.922345     -0.648840     -1.402111
H       2.656059     -0.752458      0.200944
H       0.954156      0.798118      1.118088
H      -1.981355      1.350509     -0.975402
H      -1.338405      2.086294      0.501122
H      -1.703306      0.118273      1.698353
H      -2.367219     -0.675031      0.271227
H       0.057637     -1.453764      1.339213
H      -0.421948     -1.301283     -1.419894
