13
Extracted from Q-Chem output
C       2.115149     -0.003585     -0.118011
N       0.856327      0.459667     -0.677250
C      -0.274008      0.665187      0.016392
O      -0.228173      0.426646      1.276517
C      -1.879159     -0.239611      0.659119
O      -2.202272     -0.989801     -0.416931
H       2.829389      0.813905      0.003274
H       1.914221     -0.431792      0.861448
H       2.554527     -0.766698     -0.761683
H       0.835633      0.714663     -1.647993
H      -2.418760      0.683702      0.808371
H      -1.837452     -0.908963      1.511248
H      -2.228548     -0.406536     -1.184116
