13
smiles: [C:1](=[N:2][H:9])([H:7])[H:8].[C:3]1([H:11])=[C:4]([H:10])[O:5][C:6]1([H:12])[H:13]
C       -2.53702600      -1.72156000       0.48398300
N       -1.38990700      -1.42146000       0.05628800
C        1.64328800       1.36307000      -1.00097600
C        0.86994000       1.85030400      -0.03428400
O        0.77665900       0.72876200       0.75758100
C        1.62577600       0.06870900      -0.23372800
H       -3.06723500      -2.55793800       0.02726100
H       -3.05437600      -1.19979500       1.29554000
H       -1.00605500      -0.62631700       0.56521100
H        0.36975100       2.76910100       0.24061700
H        2.08255400       1.71982800      -1.91503500
H        1.09784800      -0.77265300      -0.68389400
H        2.56027100      -0.25664400       0.22447700
