15
Extracted from Q-Chem output
C      -2.522736     -0.232860     -0.434784
N      -1.277240     -0.128571     -0.791305
C      -0.138558      0.000033     -0.075697
N      -0.147560      0.040227      1.323617
C       1.029488      0.080813     -0.904620
O       0.927670      0.030451     -2.134081
C       2.370690      0.225123     -0.235209
H      -3.274023     -0.330361     -1.201005
H      -0.631777      0.836827      1.717751
H      -2.779307     -0.223827      0.613765
H      -1.026784     -0.136657     -1.788171
H      -0.475973     -0.809187      1.765291
H       2.592489     -0.661536      0.361664
H       3.134842      0.356187     -0.997975
H       2.371643      1.073714      0.449825
