15
Extracted from Q-Chem output
C      -2.363092      0.017043     -0.056162
N      -1.220493     -0.253656     -0.808336
C      -0.079441     -0.199830     -0.139969
N      -0.199914      0.116458      1.162842
C       1.168685     -0.113546     -0.945904
O       1.132295     -0.389146     -2.126119
C       2.411791      0.307861     -0.225301
H      -3.190498      0.382156     -0.656201
H      -1.390368      0.576090      0.965774
H      -2.657256     -0.779946      0.625532
H      -1.176513     -0.223643     -1.819395
H      -0.554459     -0.628106      1.751831
H       2.748565     -0.510966      0.414447
H       3.186801      0.550481     -0.948350
H       2.200121      1.148409      0.436026
