11
smiles: [C:1](=[O+:2][C:3](=[C:4]([O-:5])[H:11])[H:10])([H:6])[H:8].[H:7][H:9]
C       -1.40164100       0.68180800       0.38196900
O       -0.76781500      -0.37279100       0.70246600
C        0.50232300      -0.73644300       0.61160500
C        1.52201600       0.09169500       0.06302100
O        2.68960400      -0.23952500      -0.02108400
H       -0.90249900       1.52871100      -0.06818400
H       -0.94387800      -0.28700000      -1.96313900
H       -2.45934600       0.65893600       0.59350100
H       -0.30796200      -0.66911400      -1.90013400
H        0.68200300      -1.72810000       0.99352900
H        1.20412800       1.09127000      -0.30196800
