12
Extracted from Q-Chem output
O      -1.797402      1.276638     -1.056564
C      -1.551152      0.726651      0.091196
C      -0.859780     -0.597316     -0.046948
C       0.377546     -0.673906      0.856295
C       1.447552      0.201473      0.384385
C       2.303696      0.926636     -0.033372
H      -1.462337      0.760344     -1.819086
H       0.095704     -0.386323      1.871265
H      -0.590026     -0.850881     -1.088249
H      -1.592577     -1.334345      0.301821
H       0.745703     -1.701103      0.895106
H       3.068965      1.576189     -0.387152
