16
Extracted from Q-Chem output
C       1.811189      0.099530      0.649681
C       0.719005     -0.109643     -0.370817
N      -0.218654     -1.305225     -0.206105
C      -0.963334     -0.487677      0.836222
C      -0.683886      0.533476     -0.280630
O      -1.066233      1.855418     -0.398838
C      -1.106857     -0.590946     -1.217030
H       2.505901     -0.742106      0.623970
H       2.374863      1.000941      0.399428
H       1.450803      0.204119      1.672660
H       1.149510     -0.102572     -1.376158
H      -0.449353     -0.400060      1.791019
H      -1.996228     -0.806996      0.976628
H      -0.675721      2.360495      0.317651
H      -0.704628     -0.591770     -2.230627
H      -2.146376     -0.916985     -1.187057
