16
Extracted from Q-Chem output
C       1.825924      0.133892      0.703992
C       0.754068     -0.093377     -0.329173
N      -0.100116     -1.334873     -0.195658
C      -1.048851     -0.103918      1.076097
C      -0.650839      0.539050     -0.264439
O      -1.007052      1.847781     -0.528603
C      -1.099079     -0.640384     -1.109447
H       2.594515     -0.636910      0.620879
H       2.303387      1.099763      0.526754
H       1.420169      0.125598      1.713780
H       1.171272     -0.089541     -1.339684
H      -0.361878     -1.224376      0.965653
H      -2.106968     -0.405047      1.008397
H      -0.801709      2.380583      0.244412
H      -0.751604     -0.707958     -2.146273
H      -2.128111     -0.979622     -1.015858
