11
Extracted from Q-Chem output
C       3.268653     -1.021646     -0.205160
C       2.033007     -0.786210     -0.164909
C       0.745450     -0.426982     -0.096839
C       0.169434      0.933014      0.169458
C      -1.301169      0.660444      0.119382
C      -1.460097     -0.624576     -0.134495
O      -0.248568     -1.298626     -0.269333
H       0.515883      1.641546     -0.587485
H       0.522371      1.307306      1.133937
H      -2.086438      1.383878      0.265217
H      -2.330384     -1.248295     -0.255811
