11
Extracted from Q-Chem output
C       2.219168      0.008753     -0.623426
C       2.088293     -0.924826      0.257065
C       0.708967     -0.592328      0.303352
C       0.196283      0.754896      0.363459
C      -1.207059      0.630345      0.005223
C      -1.414125     -0.667795     -0.236749
O      -0.274843     -1.422036     -0.072196
H       1.253363      0.995180     -0.559565
H       0.570877      1.466125      1.088110
H      -1.948928      1.410400     -0.035166
H      -2.293765     -1.228763     -0.506844
