19
Extracted from Q-Chem output
C       2.455919     -0.567316     -0.394586
O       1.065816     -0.685198     -0.191220
C       0.569853      0.154140      0.788392
C       0.063059      1.507908      0.314157
C      -1.254459      1.053147     -0.305518
C      -1.572971     -0.123188      0.607984
C      -1.814686     -1.404522     -0.110764
H       3.010006     -0.798396      0.523169
H       2.732263      0.437913     -0.731676
H       2.726086     -1.286650     -1.165695
H       1.209628      0.151588      1.682073
H      -0.116617      2.138497      1.186766
H       0.747985      2.034315     -0.353041
H      -1.089821      0.756249     -1.349651
H      -2.047058      1.805009     -0.289283
H      -0.486645     -0.264040      1.337340
H      -2.811347     -1.267966     -0.552318
H      -1.126306     -1.610784     -0.941135
H      -1.870539     -2.270738      0.549356
