15
smiles: [C:1](=[C:2]([C:5]([C:6]#[N:7])([H:10])[H:15])[H:11])([H:8])[H:9].[C:3](=[N:4][H:14])([H:12])[H:13]
C        1.74121800      -0.21796900      -0.82461400
C        1.47591200      -0.40844800       0.45540400
C       -1.29094300       1.87512700      -0.41316600
N       -1.90802200       1.24705800       0.48887000
C        0.27217300      -1.12715400       1.00667200
C       -0.62608300      -1.64942000      -0.01915500
N       -1.32617500      -2.05643200      -0.83096000
H        1.08247800      -0.58077400      -1.60607400
H        2.63301700       0.31232800      -1.13296100
H        0.58901400      -1.96223800       1.63782500
H        2.15469000      -0.03304200       1.21483500
H       -1.45738200       1.74363400      -1.48721700
H       -0.53416600       2.60534300      -0.12465800
H       -2.58402900       0.59929600       0.08618400
H       -0.30348100      -0.45737100       1.65193100
