15
Extracted from Q-Chem output
C       1.578484     -0.297232     -0.601823
C       0.630847      0.413094      0.233274
C      -0.552479      1.383540     -0.293526
N      -1.499637      1.010742      0.660780
C      -0.074817     -0.791141      0.813469
C      -1.026147     -1.505740      0.013564
N      -1.725613     -2.113884     -0.669588
H       1.165505     -0.930391     -1.383373
H       2.593484      0.050099     -0.788063
H       1.079309     -1.378262      0.451806
H       1.107442      0.948959      1.050200
H      -0.781438      1.164689     -1.341177
H      -0.205613      2.412205     -0.185356
H      -2.255097      0.492528      0.219584
H      -0.107684     -0.918527      1.888181
