15
Extracted from Q-Chem output
C       2.013798     -0.034095     -0.738565
C       0.640805     -0.104444     -0.168827
C       0.037634     -1.112598      0.441689
C      -1.371799     -0.768845      0.801317
C      -1.428076      0.886378     -1.255938
O      -1.511191      0.623181      0.424250
C      -0.306924      1.041102     -0.296471
H       1.964139      0.130350     -1.818020
H       2.567738     -0.953992     -0.555753
H       2.574122      0.799650     -0.307765
H       0.461746     -2.090219      0.628327
H      -2.113095     -1.342104      0.242104
H      -1.587359     -0.828162      1.871334
H      -1.956367      1.852826     -1.263038
H       0.054067      2.006479      0.065096
