13
Extracted from Q-Chem output
C      -1.487139      1.279620      0.904182
C       0.268503     -0.486955     -0.415177
C       1.230922     -1.412455     -1.094274
C       0.651970      0.390560      0.506229
O      -0.108958      1.273376      1.189764
H      -1.941295      0.308089      1.126902
H      -1.932999      2.042170      1.539248
H      -1.672306      1.526123     -0.146853
H      -0.773837     -0.558917     -0.704873
H       1.233840     -1.260704     -2.176867
H       0.970078     -2.459225     -0.917316
H       2.249742     -1.258368     -0.734136
H       1.689989      0.478355      0.810437
