13
Extracted from Q-Chem output
C      -1.591251      0.752436      0.737277
C       0.310859     -0.160698     -0.432169
C       1.008687     -1.463238     -0.684864
C       0.873315      0.942952      0.176375
O       0.163877      1.854998      0.671752
H      -2.092755     -0.030194      0.184709
H      -1.319153      0.492753      1.748701
H      -2.018932      1.734788      0.602193
H      -0.488979      0.116232     -1.112489
H       1.246099     -1.621001     -1.741240
H       0.386403     -2.306216     -0.370221
H       1.937475     -1.526804     -0.114630
H       1.962866      1.075661      0.221871
