15
Extracted from Q-Chem output
N       1.799659      0.056457     -1.404641
C       1.679399     -0.590138     -0.225859
O       2.465393     -1.416564      0.180970
C       0.465510     -0.209578      0.617790
N      -0.488793      0.632025     -0.081423
C      -2.052387      0.729654      0.686252
C      -1.721358      0.023814     -0.572916
H       2.599720     -0.134077     -1.980276
H       1.131803      0.756287     -1.672830
H       0.010658     -1.139360      0.972161
H       0.844644      0.318267      1.495328
H      -1.935805      0.039104      1.530038
H      -0.911970      1.532174      0.452340
H      -1.661465     -1.061398     -0.566571
H      -2.072895      0.423682     -1.520141
