14
Extracted from Q-Chem output
C      -1.583207      0.187597     -0.165835
C      -0.469674     -0.643248      0.349048
C      -0.158053     -1.929289      0.133307
O       0.615501     -2.775620     -0.231504
C       1.507054      0.133434     -1.116066
C       1.531425      0.963796     -0.245104
N       1.586285      1.874458      0.736130
H      -2.489133     -0.081768      0.383494
H      -1.776096      0.070702     -1.234324
H      -1.399500      1.237691      0.061046
H      -1.103627     -2.156140      0.802540
H       1.602050     -0.612794     -1.869276
H       1.399608      1.513845      1.658763
H       1.150348      2.761587      0.547349
