12
Extracted from Q-Chem output
N       2.390963     -0.497844     -0.049496
C       1.245852      0.144116      0.205644
C      -1.420252      1.308326      0.299067
C      -1.897696      0.627347     -0.686698
C      -1.167612     -0.143553      0.356583
N       0.174093     -0.635133      0.127043
H       2.461921     -1.483351     -0.282022
H       3.251321      0.012480     -0.009544
H      -1.231140      2.250055      0.781212
H      -2.401277      0.594735     -1.636567
H      -1.709600     -0.775430      1.059273
H       0.238687     -1.622436     -0.111665
