12
Extracted from Q-Chem output
N       2.118714     -0.233370      0.069798
C       0.939435      0.034047      0.672704
C      -0.723680      1.324234      0.021739
C      -1.505367      0.635510     -0.751477
C      -1.253738     -0.508896      0.124526
N       0.002533     -0.942506      0.432016
H       2.223749     -0.838437     -0.733344
H       2.905099      0.347987      0.290887
H      -0.601686      2.342135      0.358118
H      -2.269106      0.792954     -1.506616
H      -2.087973     -1.029790      0.594732
H       0.237707     -1.923771      0.432376
