10
Extracted from Q-Chem output
O       0.442363     -0.975852     -1.885751
C       2.306314     -0.071816      0.178650
C       0.964599      0.035932      0.160156
N       0.110939     -0.415108     -0.857637
C      -1.195457     -0.121089     -0.511059
C      -1.131370      0.494492      0.690918
O       0.102712      0.608571      1.121869
H       2.693532      0.371210      1.104108
H      -2.015412     -0.381471     -1.155254
H      -1.920053      0.886173      1.315667
