13
Extracted from Q-Chem output
O      -0.761830      1.603695      0.102280
C      -0.791513      0.219338      0.277175
C      -1.161725     -0.460047     -1.020972
C       0.173039     -1.003107     -0.723520
O       1.285923     -0.539162     -1.168360
C       1.911578      0.394001      0.165577
O       3.002520      0.736932      0.156504
H      -0.170756      2.002491      0.747764
H      -1.332307     -0.134631      1.153190
H      -1.987195     -1.161470     -0.989337
H      -1.203355      0.232534     -1.854018
H       0.191923     -1.914150     -0.115604
H       0.600906      0.158381      0.618643
