11
Extracted from Q-Chem output
C      -1.719395     -0.426598     -0.010189
C      -0.277568     -0.061546      0.055969
N       0.674675     -0.967291     -0.014891
N       1.806034     -0.302369      0.015651
N       1.641384      1.014435      0.252783
C       0.275513      1.252309      0.261837
H      -2.236864     -0.105672      0.894408
H      -2.198128      0.073646     -0.853636
H      -1.838485     -1.502934     -0.125293
H       2.697888     -0.761277      0.085457
H       1.250459      1.757979     -0.562838
