17
Extracted from Q-Chem output
C       2.674847      0.064551      0.281207
O       1.780597     -1.000711     -0.052313
C       0.628348     -1.095929      0.559313
C      -0.942248      0.163663     -0.696631
C      -2.325117     -0.414481     -0.898706
C      -0.847775      1.313363      0.211815
O      -1.671646      1.604632      1.049200
H       2.428574      0.938672     -0.325173
H       3.682588     -0.273125      0.049776
H       2.590644      0.311129      1.341101
H       0.537683     -0.399716      1.411661
H      -0.384324     -0.939939     -0.173714
H      -0.349564      0.295385     -1.602137
H      -2.961740      0.288043     -1.442226
H      -2.287068     -1.346679     -1.463954
H      -2.800581     -0.605626      0.063323
H       0.073457      1.927138      0.104115
