12
Extracted from Q-Chem output
O      -1.965758     -0.367325      0.251771
C      -0.824702     -0.949525      0.468684
C       0.384890     -0.219898      0.021447
C       0.490876      1.178703      0.158648
C       0.575681      2.367379      0.294718
C       1.598032     -0.958315     -0.145628
N       2.547487     -1.587301     -0.300569
H      -1.467637     -0.060043     -1.229143
H      -0.536880     -0.855208      1.563983
H      -0.729924     -2.027648      0.249185
H      -0.756654     -0.054016     -1.638073
H       0.644030      3.424141      0.413984
