16
smiles: [C-:1]([O+:2]=[C:3]([C:4]([H:11])([H:12])[H:13])[H:10])([H:7])[H:8].[C:5]([O:6][H:16])([H:9])([H:14])[H:15]
C        1.91712200       0.98121700      -0.34514000
O        1.31037400      -0.16062900      -0.18309900
C        0.61541000      -0.86516000      -1.00336900
C        0.06306900      -2.15606500      -0.52596900
C       -1.82272500       1.21935300       0.46214000
O       -1.13504800       1.47627600      -0.74379300
H        2.41904100       1.35671400       0.52774000
H        1.86790800       1.47764400      -1.30405300
H       -1.38018200       0.38730000       1.02151800
H        0.48891300      -0.48593100      -2.01230600
H        0.50290900      -3.01400000      -1.04672900
H       -1.02010600      -2.21323400      -0.67258500
H        0.26527200      -2.27228300       0.53920900
H       -2.84338200       0.94670100       0.19591400
H       -1.86234900       2.10110300       1.11178000
H       -0.23368200       1.72442600      -0.53650500
