16
Extracted from Q-Chem output
C       1.527647      1.008280      0.149257
O       1.325533     -0.354472      0.070729
C       0.322301     -0.735569     -0.646990
C      -0.120694     -2.144458     -0.528956
C      -1.219199      0.944817      0.133985
O      -1.540881      1.566153     -1.097134
H       2.319310      1.218256      0.860392
H       1.678272      1.471768     -0.828028
H       0.080144      1.124103      0.347644
H       0.073729     -0.154223     -1.532411
H       0.359991     -2.781104     -1.278334
H      -1.197817     -2.202668     -0.701208
H       0.105806     -2.537816      0.461563
H      -1.818652      0.038772      0.194910
H      -1.526179      1.565970      0.987618
H      -1.032360      2.376382     -1.163639
