11
Extracted from Q-Chem output
N       0.519956      0.920281      0.250003
C       0.730036      0.247392     -1.009556
O       0.196863     -1.039340     -0.807283
C      -0.715332     -0.996082      0.272055
C      -0.390134      0.281065      1.029349
O      -0.849326      0.650265      2.081338
H       0.819355      1.858374      0.447193
H       1.790898      0.152127     -1.252829
H      -0.581871     -1.874153      0.903435
H      -1.755394     -0.958376     -0.073190
H       0.212706      0.759619     -1.833710
