10
Extracted from Q-Chem output
N       1.594639     -0.124664     -0.075732
C       0.669365      0.333339      0.680805
N      -0.226324     -0.563735      1.153457
C      -0.891683     -0.863873      0.038302
N      -1.177268      0.234119     -0.878519
N      -0.861124      1.348804     -0.381505
N      -0.020744      1.581377      0.563561
H       0.359770     -0.912352     -0.616900
H       2.081728      0.591681     -0.607199
H      -1.616795     -1.669053      0.004225
