10
Extracted from Q-Chem output
N       1.088782     -0.282226     -0.507980
C       1.181625     -0.262231      0.771934
O       0.269428      0.319410      1.405931
C      -0.746570      0.736909     -0.312242
C      -1.655551     -0.368000     -0.308286
N      -2.405882     -1.236783     -0.325617
H       1.760831     -0.775483     -1.082321
H       2.005148     -0.727748      1.319710
H      -0.484346      1.067254     -1.305762
H      -1.046886      1.550554      0.333373
