8
Extracted from Q-Chem output
O       0.014780      1.990295     -0.044770
C       0.005778      0.785730     -0.017605
N       1.046834     -0.115511      0.007904
N       0.617692     -1.393951      0.034337
N      -0.638011     -1.384791      0.027997
N      -1.048527     -0.100189     -0.002772
H       2.028138      0.094478      0.007728
H      -2.026685      0.123940     -0.012821
