8
Extracted from Q-Chem output
O       0.529876      1.774549     -0.027899
C       0.062312      0.594721     -0.009603
N       1.043565     -0.288775      0.006479
N       0.536703     -1.530080      0.025835
N      -0.727666     -1.449311      0.022205
N      -1.066361     -0.111927     -0.000133
H       1.619890      0.882837     -0.011368
H      -2.030309      0.167061     -0.006354
