12
Extracted from Q-Chem output
O      -1.264906      2.081993      0.622126
C      -0.966182      1.108985      0.079445
C      -1.097740     -0.084024     -0.666588
C      -0.056872     -0.784263      0.298630
C       1.293578     -1.100589     -0.100827
C       1.118249      0.193059      0.582522
H      -2.098106     -0.510265     -0.687120
H      -0.687074      0.013939     -1.670994
H      -0.549416     -1.198689      1.173082
H       1.510094     -1.065762     -1.166173
H       1.158145      1.105065     -0.035663
H       1.381997      0.382829      1.618630
