13
Extracted from Q-Chem output
N       3.205235      1.236872     -0.310687
C       2.342818      0.367430     -0.532441
O       1.022991      0.664816     -0.222939
C       0.153614     -0.283328     -0.493259
C      -2.195554     -0.875219      0.174512
C      -1.202630      0.229591     -0.159982
H       4.124701      0.899590     -0.576773
H       2.435237     -0.637705     -0.946941
H      -2.208574     -1.631651     -0.610745
H      -3.203301     -0.473097      0.286545
H      -1.926116     -1.370352      1.108636
H      -1.175000      1.019705      0.599248
H      -1.501961      0.718971     -1.101188
