13
Extracted from Q-Chem output
N       2.916588      0.392130      0.246899
C       1.933770      0.104223     -0.474722
O       0.705442      0.567945     -0.140243
C      -0.335097      0.074062     -0.914718
C      -1.521752     -0.620364      0.319205
C      -1.612434      0.674583     -0.416876
H       3.762643     -0.005589     -0.146156
H       1.923886     -0.491787     -1.391423
H      -0.593786     -1.121822     -0.478960
H      -2.260445     -1.383587      0.099022
H      -1.129232     -0.589398      1.326924
H      -1.487467      1.565408      0.187922
H      -2.408652      0.758113     -1.146762
