14
Extracted from Q-Chem output
C       1.257277      0.046964      0.968717
C      -0.064732     -0.396271      0.414569
C      -0.217277     -0.271744     -1.083105
C      -1.055998     -0.836979      1.178830
C      -0.419303      1.178113     -1.459815
O       0.343549      1.826999     -2.118948
H       2.065960     -0.571173      0.569604
H       1.479804      1.078048      0.680294
H       1.276896     -0.019558      2.055984
H      -1.097869     -0.828439     -1.414954
H       0.663936     -0.646263     -1.607325
H      -0.952381     -0.899543      2.255890
H      -2.000123     -1.160488      0.755791
H      -1.347949      1.632392     -1.053382
