12
Extracted from Q-Chem output
C      -1.377698     -0.310187     -0.035272
C      -0.000389      0.210120      0.404708
C       0.249205      1.566170     -0.238317
O       1.177442      1.855996     -0.931606
C       1.919729     -1.557438     -0.078068
C       1.064987     -0.750587      0.143203
H      -2.152185      0.431282      0.170390
H      -1.625151     -1.223654      0.503394
H      -1.378746     -0.530174     -1.103257
H      -0.547245      2.306854     -0.009214
H       2.686760     -2.267464     -0.278603
H      -0.041179      0.406064      1.484216
