10
Extracted from Q-Chem output
N       1.736563      0.201982     -0.313643
C       0.398907     -0.040906     -0.093803
N      -0.168027     -1.201669     -0.069160
N      -1.498001     -0.871476      0.093904
C      -1.794403      0.422036      0.187411
N      -0.535085      0.949985      0.058970
H       2.142549      0.901080      0.287400
H       2.278759     -0.647333     -0.321816
H      -2.163164     -1.620502      0.137304
H      -0.351538      1.935973      0.032847
