10
Extracted from Q-Chem output
O       2.273139     -0.224453     -0.058876
C       1.018665      0.023418     -0.027578
N       0.320852     -1.099100      0.003216
C      -1.019111     -0.763022      0.035483
C      -1.109896      0.587858      0.023409
N       0.201798      1.088563     -0.017161
H       1.589976     -1.419320     -0.028057
H      -1.812305     -1.490328      0.066106
H      -1.967147      1.238053      0.039497
H       0.482209      2.050509     -0.035373
