14
Extracted from Q-Chem output
C       2.093798      0.334191     -0.519825
O       1.225833     -0.305550      0.395366
C      -0.817717     -0.064277     -0.171346
C      -1.965952     -0.938748      0.040466
C       0.023496      0.545415      0.845575
O       0.029587      1.810877      0.641511
H       3.102451      0.322413     -0.100837
H       2.105708     -0.201138     -1.473549
H       1.788597      1.373595     -0.669005
H      -0.592774      0.304332     -1.168003
H      -2.171997     -1.587530     -0.809791
H      -1.887711     -1.498715      0.971768
H      -2.825429     -0.257894      0.138706
H      -0.129357      0.166551      1.871426
