16
smiles: [C:1]([C:2](=[C:3]([H:10])[H:11])[O:4][H:13])([H:7])([H:8])[H:9].[C:5](=[O:6])([H:14])[H:15].[H:12][H:16]
C       -2.19508500      -0.88424700      -0.60308000
C       -1.11614300      -0.34480100       0.27438000
C       -0.91151700       0.94153800       0.54038000
O       -0.35286400      -1.35284600       0.77812600
C        2.59031100      -0.26927000       0.39850700
O        2.17270000      -0.32505600       1.51759800
H       -1.75766100      -1.44729200      -1.42987600
H       -2.82811100      -1.56966600      -0.03611800
H       -2.80927300      -0.08089500      -1.00413000
H       -1.55162700       1.69789000       0.11139000
H       -0.10714900       1.26979100       1.18880900
H        1.15652600       1.92633000      -1.23616000
H        0.33337100      -0.98214300       1.33844200
H        1.97861400      -0.57898700      -0.47064400
H        3.61105200       0.09455400       0.17132400
H        1.76709100       2.20881300      -1.55522200
