16
Extracted from Q-Chem output
C      -1.300386     -1.005838     -0.543371
C      -0.511865     -0.104945      0.363678
C      -0.523459      1.268484      0.241418
O      -0.396876     -0.664277      1.624250
C       1.399605     -0.581370     -0.527083
O       2.295930      0.268765     -0.311301
H      -0.831927     -1.988047     -0.634412
H      -2.297671     -1.152267     -0.122420
H      -1.405279     -0.569085     -1.535332
H      -0.848581      1.705260     -0.693773
H      -0.649847      1.891098      1.119392
H       0.945211      1.864725      0.196350
H       0.135166     -0.092721      2.182112
H       1.319312     -1.449759      0.133341
H       1.008978     -0.701504     -1.546905
H       1.685234      1.473051      0.003279
