13
Extracted from Q-Chem output
C      -0.158233     -0.582339      0.987395
C      -1.143711     -0.070357     -0.031311
C      -0.558469      1.062303     -0.615443
C       0.814999      0.978192     -0.445398
C       1.100133     -0.208322      0.246672
H      -0.254691     -1.639803      1.227069
H      -0.234512      0.014039      1.904727
H      -0.424054     -1.104943     -0.958387
H      -2.212961     -0.229748      0.040902
H      -1.075603      1.774743     -1.243596
H       1.547434      1.615229     -0.921219
H       0.513783     -1.164198     -0.842263
H       2.091080     -0.497542      0.573223
