14
Extracted from Q-Chem output
C      -2.203731     -0.226727     -0.287162
C      -0.725668     -0.128978     -0.103833
C       0.183758     -1.135834     -0.176211
C       1.378753     -0.399414      0.087575
N       2.600462     -0.902031      0.142153
O       1.290808      0.910272      0.303306
C      -0.107058      1.208007      0.197732
H      -2.739504      0.126430      0.599598
H      -2.540694      0.387772     -1.128088
H      -2.481434     -1.261500     -0.477013
H       2.692298     -1.888634     -0.018633
H       3.404447     -0.331989      0.332081
H      -0.434442      1.643557      1.145477
H      -0.238948      1.948706     -0.595238
