14
Extracted from Q-Chem output
C      -2.089051     -0.338501     -0.295755
C      -0.627226     -0.122930     -0.093093
C       0.395367     -0.991193     -0.128195
C       1.541426     -0.166296      0.147352
N       2.595221     -0.913360      0.142152
O       1.332643      1.116469      0.344906
C      -0.104543      1.271752      0.208155
H      -2.663054     -0.026027      0.581685
H      -2.462036      0.241765     -1.144976
H      -2.292347     -1.391161     -0.483390
H       1.685412     -1.808149     -0.117438
H       3.540167     -0.600643      0.309688
H      -0.485382      1.686929      1.145170
H      -0.287556      1.990978     -0.594515
