16
Extracted from Q-Chem output
C       2.295315      0.153648      0.465490
O       1.346809     -0.895924      0.534684
C       0.473148     -1.107266     -0.479472
C      -0.701830      0.690665     -0.461358
C      -2.012159      0.494887      0.209052
C      -1.312073     -0.838915      0.067450
H       1.973215      1.015513      1.059412
H       2.458812      0.466551     -0.570804
H       3.232990     -0.218111      0.879161
H       0.789963     -0.597698     -1.398610
H       0.054348      1.243170      0.075350
H      -0.730126      0.880486     -1.525015
H      -2.895835      0.652766     -0.398211
H      -2.103852      0.887312      1.214931
H      -1.106866     -1.315778      1.016361
H      -1.772881     -1.499038     -0.652331
