16
Extracted from Q-Chem output
C       1.502187      0.989090      0.223916
C       0.830397     -0.170311     -0.463391
C       0.281093     -1.326205      0.368204
C      -1.061588     -1.154740     -0.349592
C      -1.673163      0.728907      0.073526
O      -0.464069      0.150008     -1.056382
H       1.645426      1.822911     -0.465949
H       0.920479      1.332604      1.081094
H       2.481696      0.672807      0.588139
H       1.440551     -0.518648     -1.303350
H       0.802592     -2.274752      0.236405
H       0.238884     -1.106558      1.441985
H      -1.213398     -1.878295     -1.156929
H      -1.656972      0.480700      1.129919
H      -1.328071      1.759002     -0.086578
H      -2.650915      0.574787     -0.358673
