13
Extracted from Q-Chem output
N       1.535312     -0.796191     -1.490802
C       1.085760     -0.030560     -0.605567
O       1.705695      1.011032      0.078043
C       0.530731      1.257418      0.895190
C      -0.155037      0.152759      0.136143
C      -1.691448     -0.734102     -0.855208
N      -1.184630     -0.690164      0.388355
H       2.518819     -0.625365     -1.674932
H       0.734766      1.065736      1.953314
H       0.164492      2.277043      0.758748
H      -1.812951     -1.673028     -1.388404
H      -2.068229      0.180305     -1.281924
H      -1.258171     -1.398786      1.105919
