14
smiles: [C:1]([N:2]=[C:4]=[O:5])([H:7])([H:8])[H:9].[C:3]([N:6]([H:13])[H:14])([H:10])([H:11])[H:12]
C       -1.61125500      -1.32365700       0.55341000
N       -0.75624000      -1.86679400      -0.46213800
C        0.58572000       1.78029200      -0.40626900
C        0.34688600      -1.74910200      -0.90036000
O        1.39989400      -1.71680900      -1.40475300
N        1.06652600       0.79141100       0.54848200
H       -1.14264200      -0.48363800       1.06762300
H       -2.54260400      -0.98400700       0.10103600
H       -1.84956400      -2.09718900       1.28347300
H        1.30364900       2.57339700      -0.65509900
H        0.30329500       1.28006800      -1.33421200
H       -0.31480700       2.25406000      -0.01192000
H        1.89514800       0.32925900       0.20090600
H        1.31698700       1.22921200       1.42416800
