14
Extracted from Q-Chem output
C      -1.528934     -1.273413      0.343348
N      -0.441856     -0.359875      0.113510
C      -0.049982      1.651994     -0.281669
C       0.791902     -0.780828      0.092209
O       1.337299     -1.860452      0.267459
N       1.570531      0.432476     -0.228506
H      -1.141127     -2.285861      0.496609
H      -2.106491     -0.987090      1.227163
H      -2.211977     -1.294210     -0.511662
H       0.629320      2.324122     -0.798271
H      -0.980362      1.566635     -0.824211
H      -0.184820      1.920414      0.755292
H       2.040794      0.329981     -1.122505
H       2.280477      0.616921      0.474443
