15
Extracted from Q-Chem output
C       2.292748      0.261908      0.068290
N       0.884536     -0.071840     -0.038677
C       0.388337     -1.353270      0.029939
C      -0.997989     -1.404541     -0.055260
C      -1.315377      0.061841     -0.054481
N      -2.592172      0.646890     -0.305992
C      -0.107540      0.811658     -0.091997
H       2.870555     -0.448814     -0.520400
H       2.461884      1.265890     -0.314747
H       2.616032      0.211488      1.107977
H       1.097110     -2.167304      0.098942
H      -1.291451     -0.432119      1.026858
H      -3.292726     -0.075516     -0.188979
H      -2.644262      0.942969     -1.271425
H       0.067357      1.875262     -0.140651
