13
Extracted from Q-Chem output
C       2.554375     -0.985619      0.632448
C       1.308252     -0.718793      0.944689
C       0.187195     -0.108123      0.399309
C      -0.366600      1.172342      0.294928
C      -1.778103      1.058943     -0.126386
O      -1.944322     -0.378081     -0.379433
C      -0.850630     -0.951352     -0.052463
H       3.219944     -1.513737      1.310808
H       0.116029      2.107683      0.521393
H      -2.552677      1.293311      0.615237
H      -2.040098      1.558208     -1.064045
H      -0.819600     -2.032625     -0.142663
H       2.995498     -0.690652     -0.325019
