13
Extracted from Q-Chem output
C       2.066267     -0.980611      0.775672
C       1.971352      0.232950      0.345726
C       0.580582      0.449852      0.025476
C      -0.373638      1.343470      0.297166
C      -1.711166      0.706921      0.122236
O      -1.439359     -0.601055     -0.402425
C      -0.119790     -0.792472     -0.384906
H       2.779245     -1.683115      1.181630
H      -0.237719      2.349198      0.666332
H      -2.262681      0.617514      1.063604
H      -2.351878      1.205840     -0.608769
H       0.219964     -1.467909     -1.163507
H       0.861239     -1.493670      0.660718
