13
Extracted from Q-Chem output
C      -1.354777      0.704714     -0.603894
C       0.221421     -1.108908      1.826867
N       0.678838     -1.026531      0.610283
C       1.117170      0.226000      0.016464
C       0.104225      0.875456     -0.923986
O       0.499380      1.533232     -1.851566
H      -1.664653     -0.318414     -0.831193
H      -1.941129      1.397950     -1.201889
H      -1.534198      0.855956      0.462650
H      -0.044446     -2.168521      1.992745
H       0.750836     -1.826319     -0.013954
H       2.052280      0.089927     -0.527565
H       1.284992      0.921934      0.841421
