19
Extracted from Q-Chem output
C      -2.420889      0.421628      0.245642
C      -1.054828     -0.203349      0.383117
C      -0.646995     -1.270376     -0.983291
O       0.572663     -1.673339     -0.910805
C       1.372881      0.027392      0.461558
C       2.625923      0.522603     -0.184309
C       0.102520      0.608996      0.257256
H      -3.151339     -0.335367     -0.048645
H      -2.424699      1.195947     -0.525021
H      -2.772328      0.870102      1.177370
H      -0.980652     -0.936673      1.184150
H      -1.442398     -2.018130     -0.794080
H      -0.942020     -0.651399     -1.858152
H       1.403992     -0.875822      1.055509
H       2.842285     -0.168833     -1.000218
H       3.473642      0.526712      0.500126
H       2.499049      1.520743     -0.605223
H       0.069191      1.532416     -0.315716
H       0.898962      0.888237      1.324250
