12
Extracted from Q-Chem output
C      -1.753497     -0.089522     -0.015196
C      -0.269406      0.075950     -0.010602
C       0.436806      1.224043     -0.119703
O       1.770206      0.984299     -0.077630
C       1.919521     -0.349942      0.062431
C       0.716600     -0.960155      0.109918
H      -2.256713      0.871940     -0.119974
H      -2.102570     -0.550345      0.911402
H      -2.075467     -0.729367     -0.839618
H       0.143798      2.255058     -0.231057
H       2.932412     -0.713267      0.112283
H       0.538309     -2.018692      0.217745
