15
Extracted from Q-Chem output
C      -2.282642      0.367419      0.284856
C      -1.352006     -0.195274     -0.780522
N       0.024968     -0.292019     -0.336952
C       2.265408     -1.461433      0.611264
C       3.055538     -0.549201      0.695816
N       1.965746      1.108873      0.018333
C       0.814550      0.683749     -0.268922
H      -3.317450      0.365390     -0.064668
H      -2.224596     -0.227486      1.197636
H      -2.012715      1.395641      0.537156
H      -1.427819      0.399632     -1.698485
H      -1.670509     -1.205909     -1.044166
H       1.554284     -2.247997      0.524805
H       3.927373      0.038452      0.868476
H       0.674737      1.810085     -0.539172
