19
smiles: [C:1]1([H:9])([H:10])[C:2]([H:11])([H:12])[C:3]([O:4][H:14])([H:13])[C:5]([H:15])([H:16])[C:6]1([H:17])[H:18].[O:7]([H:8])[H:19]
C        0.68212000       0.64808100       0.35220600
C        1.40176900      -0.36680700      -0.55132900
C        0.29855700      -1.32418100      -0.99748400
O        0.00170100      -2.30029200      -0.00849700
C       -0.87737400      -0.38381900      -1.25624300
C       -0.78810500       0.67492300      -0.13927500
O       -1.06795800       2.07016000       3.03416900
H       -0.23671200       2.25384800       2.59472700
H        0.73251900       0.33317000       1.39754900
H        1.15031900       1.63161600       0.31044400
H        2.21885100      -0.89162100      -0.05519000
H        1.81390400       0.13340000      -1.43193500
H        0.57585900      -1.89973100      -1.88150300
H       -0.26355300      -1.85518500       0.79934900
H       -1.82563700      -0.92192900      -1.27165800
H       -0.74850300       0.08563600      -2.23490200
H       -1.47387400       0.43911700       0.67735200
H       -1.07850600       1.66102800      -0.50228600
H       -1.74714100       2.27966800       2.39186400
