17
Extracted from Q-Chem output
C       1.422769      0.464387     -0.841337
C       0.961627      0.014994      0.828551
C       0.151813     -1.286928      0.869190
C      -0.856628     -1.107659     -0.259339
C      -0.577013      0.342056     -0.534217
C      -0.856388      1.286323      0.616703
O       0.252572      1.059647      1.441435
H       2.108454     -0.370427     -0.979108
H       1.002628      0.627746     -1.848475
H       1.974418      1.369756     -0.601886
H       0.796551     -2.156018      0.733967
H      -0.300002     -1.359874      1.859856
H      -1.917721     -1.295313     -0.045058
H      -0.591661     -1.718528     -1.123855
H      -0.881776      0.718391     -1.508953
H      -1.832672      1.076858      1.088932
H      -0.856971      2.334591      0.303592
