11
Extracted from Q-Chem output
C      -1.849413     -0.451731     -0.160445
C      -0.427718     -0.097406     -0.352761
O       0.325520     -0.036953      0.667369
C       1.630528      0.265440      0.721618
C       2.290440      0.556706     -0.465823
N       2.749357      0.783496     -1.505502
H      -2.499925      0.356785     -0.506507
H      -2.107783     -1.340308     -0.743286
H      -2.057240     -0.645381      0.890754
H       0.008920      0.117919     -1.324406
H       2.052312      0.250446      1.707133
