8
Extracted from Q-Chem output
C      -1.044830     -0.463477     -0.277873
N      -0.628153      0.906084     -0.540134
N       0.312252      1.210026      0.555555
N       0.830776      0.805165     -0.734619
C       0.872759     -0.128560      0.388128
N      -0.154583     -1.142575      0.292784
H      -2.034459     -0.780979     -0.575786
H       1.826294     -0.358507      0.843119
