15
Extracted from Q-Chem output
C       1.692353     -0.876735      0.169557
C       0.978905      0.390838      0.555768
N       0.409938      1.099749     -0.691012
C      -0.485426      0.432888      0.286208
C      -1.357391     -0.677092     -0.271047
C      -1.256718      1.381795      1.084582
N      -1.886781      2.123368      1.692816
H       1.635564     -1.567633      1.013521
H       1.315989     -1.412835     -0.719346
H       2.751491     -0.673985      0.003146
H       0.418141      0.658605     -1.606120
H       0.449261      2.108335     -0.715764
H      -0.787357     -1.344106     -0.915630
H      -1.742564     -1.265715      0.561818
H      -2.209009     -0.281230     -0.827172
