8
Extracted from Q-Chem output
N      -0.683686      0.776150      0.161097
C      -0.559832     -0.568025      0.091682
N       0.564939     -0.972014     -0.849070
C       1.064156     -0.191427      0.041921
N       0.493351      1.261963     -0.053779
H      -1.523995      1.339893      0.180425
H      -1.253297     -1.313499      0.439431
H       1.889535     -0.331008      0.746137
