17
Extracted from Q-Chem output
C       2.069922      0.714660      0.264187
C       1.185823     -0.473819     -0.069340
C      -0.037707     -0.172174     -0.861584
C      -1.026636     -1.289991     -0.885186
C      -1.838606     -0.492478      0.132520
C      -1.168185      0.880492      0.161385
C      -1.077758      1.998447      0.640974
H       2.255518      1.313513     -0.628609
H       3.029433      0.390755      0.671350
H       1.587956      1.355674      1.004452
H       1.712190     -1.150932     -0.763289
H       0.991446     -1.090185      0.823878
H      -1.542215     -1.405075     -1.837241
H      -0.698706     -2.262262     -0.507563
H      -1.766898     -0.918264      1.131330
H      -2.881588     -0.347981     -0.143474
H      -0.882745      3.019031      0.875610
