18
Extracted from Q-Chem output
C      -2.243211      0.366947     -1.130362
C      -1.536138     -0.924944     -0.778485
N       0.153963      0.156818      0.991325
C       1.005075      0.739218      1.999527
C       0.647550     -0.288113     -0.078946
O      -0.130939     -0.848627     -1.026394
C       2.090260     -0.302469     -0.507527
H      -3.321656      0.241606     -1.012768
H      -2.042004      0.645698     -2.166173
H      -1.917958      1.173595     -0.474367
H      -1.877888     -1.742653     -1.414142
H      -1.701820     -1.187848      0.267193
H       0.701987      0.366115      2.979454
H       2.074581      0.535822      1.875862
H       0.866889      1.824156      2.016563
H       2.171413     -0.694450     -1.518159
H       2.681832     -0.931159      0.159848
H       2.511942      0.702681     -0.479943
