18
Extracted from Q-Chem output
C      -2.128439      0.588712     -0.623049
C      -1.393840     -0.522039      0.114354
N       0.028364     -0.254938      0.271786
C       0.416489      0.491129      1.445648
C       0.865555     -0.615003     -0.740937
O       0.445759     -1.164449     -1.744258
C       2.343193     -0.321090     -0.583788
H      -3.192112      0.356360     -0.701281
H      -1.727083      0.695425     -1.631162
H      -2.033263      1.546215     -0.105815
H      -1.497080     -1.459443     -0.430121
H      -1.813344     -0.663541      1.114088
H       0.161535     -0.062478      2.354174
H       1.485194      0.681556      1.455137
H      -0.096158      1.457444      1.482188
H       2.848408     -0.741825     -1.448524
H       2.753853     -0.765541      0.323970
H       2.532969      0.753506     -0.552411
