12
Extracted from Q-Chem output
N       1.821293     -0.000259     -0.185269
C       0.789887      0.619612      0.345568
O       0.823220      1.790162      0.855073
C      -0.563827      0.131424      0.525141
C      -1.341560     -0.241661     -0.693079
N      -0.793499     -1.272974      0.168880
H       2.748326      0.385033     -0.156924
H       1.667665     -0.944938     -0.502937
H      -0.286567      1.504040      1.189952
H      -0.898853     -0.195940     -1.684327
H      -2.407614     -0.040953     -0.667460
H      -1.504374     -1.670805      0.769078
