11
smiles: [C:1](=[C:2]([N:3]=[O:4])[C:5]#[C:6][H:11])([H:7])[H:8].[H:9][H:10]
C       -0.64137600      -1.01394700      -0.11755400
C        0.32570300      -0.13936600      -0.37224600
N        0.05048400       1.10777500      -1.11479300
O       -1.09903200       1.41954700      -1.13574600
C        1.70520800      -0.31633800      -0.05531800
C        2.86541800      -0.43829300       0.21492300
H       -1.65798700      -0.78914300      -0.41612900
H       -0.43366500      -1.95225600       0.37745900
H       -2.88266800       1.24239900       1.85896600
H       -2.54308700       1.26684400       1.19677200
H        3.89707700      -0.55054700       0.45307900
