11
Extracted from Q-Chem output
C      -0.859791     -0.750039      0.165178
C       0.159817      0.058085     -0.303409
N      -0.140977      1.303007     -0.779446
O      -1.362132      1.560545     -0.789753
C       1.541437     -0.219467     -0.066368
C       2.694488     -0.484034      0.119477
H      -1.794722     -0.788960     -0.376045
H      -0.630595     -1.574165      0.829814
H      -1.696870      0.407103      1.078170
H      -1.850084      1.041842      0.539967
H       3.722710     -0.706299      0.282683
