17
Extracted from Q-Chem output
C      -2.020109     -0.219375      0.640114
C      -1.461643      0.327055     -0.668031
C      -0.025569      0.836979     -0.556449
C       0.929465     -0.258899     -0.161260
C       2.259036      0.106816      0.486008
O       1.210043     -0.344743      1.267419
C       1.384204     -1.266289     -1.027169
H      -1.450193     -1.082231      0.990618
H      -1.985793      0.535211      1.429429
H      -3.058069     -0.533628      0.519739
H      -2.090936      1.147547     -1.022838
H       0.299994      1.230614     -1.521090
H       0.031420      1.643027      0.180170
H       3.140266     -0.526870      0.437842
H       2.450319      1.177699      0.463095
H       1.791251     -2.088866     -0.418967
H      -1.497452     -0.446227     -1.441652
