17
Extracted from Q-Chem output
C      -1.932442     -0.328846      0.599484
C      -1.207172      0.204191     -0.616667
C       0.027194      1.065529     -0.324927
C       1.052252     -0.019765     -0.133813
C       2.416861      0.127301      0.348047
O       1.404786     -0.340488      1.228708
C       0.630643     -1.072345     -1.091722
H      -1.238451     -0.766175      1.317906
H      -2.457847      0.489524      1.098962
H      -2.672778     -1.081882      0.326674
H      -1.898308      0.656415     -1.332716
H       0.279485      1.683550     -1.187166
H      -0.086179      1.703023      0.552708
H       3.166102     -0.609376      0.067275
H       2.807578      1.119964      0.561341
H       0.405276     -1.997028     -0.533579
H      -0.777757     -0.651838     -1.297844
