16
Extracted from Q-Chem output
C       0.827645     -0.702370     -0.876282
C       0.506659     -0.301115      0.576915
C       1.041418      1.090082      0.905097
C      -0.281384     -0.361644     -1.789274
C      -1.392025     -0.020064     -0.874150
C      -1.026704     -0.370872      0.577433
H       0.735048     -1.803378     -0.991934
H       1.827836     -0.465993     -1.244588
H       0.933174     -1.014324      1.286274
H       2.129700      1.121383      0.818803
H       0.778738      1.382031      1.923769
H       0.639572      1.847709      0.226501
H      -2.379537     -0.324737     -1.223715
H      -1.374982      1.077126     -1.027488
H      -1.361610     -1.386916      0.803782
H      -1.484700      0.293439      1.312588
