16
Extracted from Q-Chem output
C       0.868433     -0.779978     -0.756723
C       0.498443     -0.493029      0.695772
C       0.908144      0.981804      0.623295
C       0.137072      0.487502     -1.253474
C      -1.249300      0.284507     -0.658895
C      -1.028676     -0.513127      0.654228
H       0.441010     -1.690332     -1.183726
H       1.940471     -0.760873     -0.956015
H       0.950937     -1.066139      1.510090
H       1.988128      1.130093      0.640029
H       0.387440      1.687029      1.271483
H       0.725576      1.417511     -0.551445
H      -1.808784     -0.288160     -1.404234
H      -1.787605      1.221470     -0.516560
H      -1.410197     -1.535221      0.605505
H      -1.481281     -0.031489      1.522848
