18
smiles: [C:1]([C:2]([C:3](=[C:4]([H:15])[H:16])[H:13])([H:11])[H:12])([H:8])([H:9])[H:10].[N:5](=[C:6](/[O:7][H:14])[H:18])\[H:17]
C       -2.50168500      -0.02909400      -0.84355400
C       -1.28601300      -0.05203400       0.08127300
C       -0.25552400       0.96578500      -0.30146700
C        0.15882900       1.95841200       0.47061300
N        1.72689100      -1.90076700      -0.26956000
C        2.56306600      -1.50346600       0.58154500
O        2.46154500      -0.30772200       1.17285500
H       -2.99962900       0.94170800      -0.80678200
H       -2.21161300      -0.21385400      -1.88061800
H       -3.22682100      -0.79388500      -0.56018600
H       -1.59744000       0.11866200       1.11536400
H       -0.83119700      -1.04804100       0.05092700
H        0.16194600       0.86810600      -1.30239500
H        1.67042400       0.11624900       0.81509200
H        0.90396800       2.66903500       0.13405600
H       -0.23299400       2.09488000       1.47368500
H        1.95825300      -2.82579800      -0.61172900
H        3.44216700      -2.03788900       0.94446900
