18
Extracted from Q-Chem output
C      -1.969760     -0.742679     -0.794623
C      -1.318321      0.153860      0.249011
C      -0.028602      0.822662     -0.132662
C       0.719416      1.535281      0.809122
N       1.094428     -0.873428     -0.621637
C       2.039898     -1.100806      0.234753
O       2.666667     -0.155864      0.820253
H      -1.983792     -0.261985     -1.775159
H      -1.457133     -1.698834     -0.897638
H      -3.002493     -0.960510     -0.518263
H      -1.997873      0.986280      0.468778
H      -1.186781     -0.374205      1.197009
H       0.046598      1.119459     -1.171518
H       1.844168      0.735392      0.854413
H       1.192006      2.451618      0.469027
H       0.353132      1.544014      1.831793
H       0.640008     -1.725625     -0.921101
H       2.325659     -2.126950      0.512564
