14
Extracted from Q-Chem output
C       2.178125      0.861152      0.554181
C       0.799735      0.572071      0.073123
O       0.274900     -0.339729      0.825411
C      -1.081139     -0.771180      0.526085
C      -1.403648     -0.807999     -0.951491
O      -1.567693      0.461820     -1.517984
H       2.252537      1.937122      0.733441
H       2.481774      0.300223      1.442728
H       2.862512      0.659129     -0.275188
H      -0.629514     -1.392020     -1.470526
H      -1.753054     -0.093069      1.054070
H      -1.150825     -1.765718      0.967687
H      -2.347891     -1.346994     -1.066429
H      -0.732961      0.923408     -1.319698
