16
Extracted from Q-Chem output
C       2.016426      0.470167      0.278887
C       0.578041      0.467207     -0.167475
C      -0.413355     -0.460144      0.465837
C      -1.479514     -1.177282     -0.331430
O      -1.996804     -0.425373     -1.411356
C      -0.501878      1.013147      0.723133
H       2.595997     -0.299326     -0.236606
H       2.090072      0.277643      1.351946
H       2.489551      1.435265      0.083637
H       0.434675      0.669353     -1.224955
H      -1.337756     -0.395242     -2.106479
H      -0.025530     -1.063406      1.281854
H      -2.333199     -1.391451      0.315585
H      -1.088604     -2.139969     -0.685599
H      -1.316649      1.546569      0.250757
H      -0.214338      1.380847      1.700520
