11
Extracted from Q-Chem output
O       1.548604      0.254020      0.150704
C       0.704067     -0.893400      0.140876
C      -0.717787     -0.420669      0.287066
O      -1.169834      1.986519     -0.709715
C      -1.164773      0.688063     -0.497194
N      -1.606356     -0.364684     -0.985843
H       2.438786     -0.011499     -0.085319
H       0.798922     -1.434754     -0.807416
H       0.965848     -1.572401      0.959780
H      -1.238009     -0.685151      1.204109
H      -0.531744      2.390823     -0.113349
