12
smiles: [H:6][H:7].[O:1]=[C:2]([C@@:3]1([H:9])[C:4]([H:10])([H:11])[N:5]1[H:12])[H:8]
O        1.90123000      -0.44141700      -0.17796200
C        1.21778600      -0.06951300      -1.09013600
C       -0.23572000       0.24825500      -0.96903400
C       -1.05936600      -0.49998400       0.01810600
N       -0.66275900       0.86146800       0.29221500
H        1.08673500      -0.17114300       2.46023700
H        1.00548900      -0.35250200       3.17785100
H        1.64187100       0.03761400      -2.10981600
H       -0.71740600       0.57351800      -1.88529200
H       -0.55786200      -1.24425700       0.62495000
H       -2.08842400      -0.71351300      -0.24860000
H       -1.42370400       1.50542200       0.11375100
