12
Extracted from Q-Chem output
O       1.584220      0.735366      0.885067
C       1.199872     -0.142139     -0.016626
C      -0.258280     -0.275544     -0.380942
C      -1.278492      0.418429      0.421969
N      -0.830342      0.981164     -0.847678
H       1.626739     -0.646997      1.092994
H       1.379322     -1.439166      0.582152
H       1.868058     -0.343995     -0.871636
H      -0.524969     -1.192311     -0.899917
H      -0.950178      0.974001      1.291075
H      -2.264786     -0.028181      0.475621
H      -1.500193      0.805258     -1.585624
