11
Extracted from Q-Chem output
C       1.243964      0.626685     -0.392348
C       1.427339     -0.524435      0.338568
C       0.110374     -0.568469      0.804548
C      -0.926976     -1.102853     -0.109415
C      -1.047246     -0.022180     -0.870523
N      -0.110974      1.057254     -0.526212
N      -0.371839      0.544596      1.421221
H       1.970939      1.276478     -0.865510
H      -1.403651     -2.066120     -0.166469
H      -1.683833      0.161339     -1.724642
H       0.416163      1.095437      1.763158
