19
Extracted from Q-Chem output
C       2.733060      0.144109      0.253316
C       1.370603     -0.521783      0.385170
C       0.232730      0.485286      0.515363
C      -1.116938     -0.184285      0.637779
C      -1.680564     -1.110658     -0.442962
O      -2.895569     -0.510807     -0.404618
C      -2.426734      0.581148      0.416173
H       2.769694      0.788969     -0.628061
H       2.957345      0.762874      1.125785
H       3.529457     -0.595346      0.155609
H       1.364858     -1.187920      1.254002
H       1.186299     -1.158873     -0.485734
H       0.228275      1.142540     -0.361170
H       0.403473      1.121350      1.391350
H      -1.167027     -0.750394      1.574203
H      -1.118458     -1.151476     -1.576682
H      -0.894617     -0.272801     -1.776285
H      -2.306955      1.475647     -0.204954
H      -3.090447      0.776795      1.259718
