13
Extracted from Q-Chem output
O       1.001042     -0.784562     -0.756597
C       1.917996     -0.146452      0.318134
C       1.113153      0.357085      1.436829
C      -0.107733      0.155306      1.268323
C      -1.277313     -0.213980      0.650698
C      -2.067152      0.781415     -0.085214
O      -3.145828      0.570707     -0.581215
H       1.076983     -0.324669     -1.598329
H       2.470618      0.629571     -0.209403
H       2.575530     -0.968625      0.588102
H      -1.795631     -1.122976      0.942995
H      -0.071655     -0.612918     -0.316471
H      -1.573404      1.771932     -0.191019
