13
smiles: [C:1](=[N:2][C:3]1=[C:4]([H:11])[C:5]([H:12])([H:13])[O:6]1)([H:7])[H:8].[H:9][H:10]
C        2.29299500       0.68088900      -0.04755600
N        1.43412400      -0.08170300      -0.58303300
C        0.12770000       0.04021000      -0.17446200
C       -1.03940800      -0.53647600      -0.46503500
C       -1.64787700       0.38534700       0.55146200
O       -0.31516700       0.93982800       0.78537200
H        2.04287700       1.42100400       0.71508200
H        3.33004800       0.59323900      -0.36100500
H       -0.31761600      -1.99151700       2.75267200
H       -0.20198900      -1.87249100       2.02675100
H       -1.38353000      -1.30728500      -1.13045200
H       -2.32039800       1.16100200       0.18297900
H       -2.03473500      -0.06527100       1.46624600
