12
Extracted from Q-Chem output
N       1.487608     -0.182260      0.400348
C       0.554867     -0.073203     -0.525490
C      -0.607278     -0.994408     -0.833362
O      -1.685512     -0.040612     -0.610837
C      -0.995924      0.788484      0.159954
N      -0.948385      1.597946      1.027432
H       1.194826      0.941083      1.325604
H       1.275517     -0.941958      1.049556
H       0.794146      0.602178     -1.348356
H      -0.646837     -1.359870     -1.858798
H      -0.712304     -1.823493     -0.129816
H       0.485108      1.431946      1.500208
