17
Extracted from Q-Chem output
C      -2.395804     -0.210211      0.590988
C      -1.373683     -0.407564     -0.520873
C       1.101166     -0.929343     -0.962646
C       2.296021     -0.077544     -0.702675
C       1.889377      1.032780      0.232046
C       0.626382      0.861132      0.598187
C       0.075372     -0.399594     -0.033889
H      -3.411980     -0.246428      0.195053
H      -2.305788     -0.990995      1.350478
H      -2.274134      0.753779      1.089623
H      -1.545847     -1.355933     -1.033497
H      -1.490101      0.377523     -1.273489
H       2.697734      0.259211     -1.667197
H       3.089830     -0.733584     -0.316593
H       2.541232      1.836723      0.550502
H       0.070069      1.500620      1.272073
H       0.170123     -1.234503      0.702102
