12
Extracted from Q-Chem output
N      -1.696691     -0.694592      1.365261
C      -0.753191     -0.309072      0.638122
O      -0.031094     -1.066632     -0.222923
C      -0.205097      1.090657      0.559161
O       0.639962      1.055381     -0.573722
C       1.002948     -0.271445     -0.812710
O       1.127367     -0.516598     -2.138698
H       0.342065     -0.182277     -2.585704
H      -1.871357     -1.690111      1.255213
H      -0.991993      1.826781      0.408089
H       0.351898      1.338036      1.468832
H       1.954641     -0.536959     -0.342404
