12
Extracted from Q-Chem output
N      -1.789282     -0.595123      0.364456
C      -0.546888     -0.402165      0.687102
O       0.401767     -1.203574      0.884500
C      -0.095966      1.064427      0.521511
O       1.185978      0.960060     -0.172085
C       1.279986     -0.056048     -0.940791
O       0.362127     -0.519021     -1.705187
H      -0.558479     -0.430055     -1.325583
H      -2.002067     -1.586241      0.475529
H      -0.790426      1.652586     -0.074875
H       0.136925      1.559147      1.460189
H       2.285786     -0.400823     -1.156246
