11
Extracted from Q-Chem output
O      -1.930264     -0.292348     -0.056026
C      -1.006663      0.684642      0.149477
C       0.326758      0.464973      0.480319
C       1.070135     -0.729092     -0.015502
O       1.280842     -0.130838     -1.227726
H      -1.498729     -1.152374     -0.083522
H      -0.141056      0.750224     -0.831027
H      -1.454529      1.663340      0.256653
H       0.925312      1.321704      0.762136
H       0.467750     -1.658461     -0.025074
H       1.971156     -0.937077      0.580797
