15
smiles: [C:1]([O:2][C:3](=[O:4])[C:5]([H:11])([H:12])[H:14])([H:8])([H:9])[H:10].[C:6]([O:7][H:15])[H:13]
C       -2.54685100      -0.18853800      -0.66940000
O       -1.79854700      -0.06736600       0.53800700
C       -0.47518200       0.09475000       0.38726000
O        0.06650000       0.13059100      -0.68378700
C        0.20807600       0.22979900       1.71735100
C        2.81056900       0.21052200      -0.53875800
O        3.04098300      -0.39082400      -1.67162600
H       -2.20106600      -1.04212400      -1.25246100
H       -3.58069800      -0.33083500      -0.36500600
H       -2.44968900       0.71403500      -1.27311000
H       -0.15582400       1.12488900       2.22307100
H       -0.03075900      -0.62545000       2.34945200
H        2.58105900       1.25248100      -0.85821900
H        1.28180500       0.30014900       1.56839800
H        3.25291100      -1.31575800      -1.49364100
