15
Extracted from Q-Chem output
C      -2.750760      0.366615     -0.319114
O      -1.545644      0.307534      0.438655
C      -0.598534     -0.518019     -0.042287
O      -0.743606     -1.170038     -1.046088
C       0.636066     -0.462560      0.764474
C       2.215115      0.540116     -0.470127
O       3.375990      0.052657     -0.036649
H      -3.233203     -0.610651     -0.349900
H      -3.386188      1.086239      0.190899
H      -2.548515      0.691461     -1.339917
H       0.488769     -0.115011      1.785110
H       1.210685     -1.378357      0.704643
H       1.871502     -0.070593     -1.309699
H       1.284770      0.671692      0.339408
H       3.742815      0.650046      0.621431
