17
Extracted from Q-Chem output
C       1.727728     -0.350488     -1.065008
C       0.679995      0.487817      0.911714
O       0.063764      1.666538      0.482508
C      -1.133689      1.269915     -0.166326
C      -1.561838     -0.020399      0.533439
C      -0.213984     -0.597483      0.919398
O       0.384878     -1.454457     -0.395290
H       1.455783      0.664891     -1.325205
H       1.743485     -1.007651     -1.931608
H       2.631734     -0.428794     -0.478808
H       1.491187      0.649458      1.605620
H      -0.934809      1.071621     -1.227941
H      -1.853899      2.083499     -0.086060
H      -2.126522      0.195319      1.445181
H      -2.168495     -0.663911     -0.102172
H      -0.162797     -1.360309      1.687178
H      -0.046117     -2.231410     -0.823323
