15
Extracted from Q-Chem output
C       1.766265      0.123165     -1.113213
C       0.408524     -0.289531     -0.624341
C      -1.834571      0.341848      1.892232
N      -1.605030      0.356767      0.657042
C      -0.284633      0.748110      0.222224
C      -0.131610     -1.466252     -0.906415
H       2.223852     -0.658266     -1.718979
H       2.435714      0.342062     -0.276210
H       1.704889      1.033203     -1.717087
H      -2.822436      0.055137      2.248657
H      -1.081399      0.604985      2.646915
H       0.370434      1.005890      1.071394
H      -0.392467      1.659859     -0.376994
H       0.398963     -2.188547     -1.515805
H      -1.116935     -1.734453     -0.548566
