19
Extracted from Q-Chem output
C       2.693342      0.732323      0.168327
C       1.580331     -0.199303     -0.250210
O       0.593139     -0.200457      0.761870
C      -0.482692     -1.025821      0.466772
C      -1.763191     -0.722001      1.158250
C      -1.643703     -0.490445     -0.328218
C      -1.631915      0.917063     -0.864725
H       3.128651      0.406021      1.113674
H       2.313619      1.746982      0.297334
H       3.479441      0.751085     -0.588434
H       1.962199     -1.219971     -0.394311
H       1.140088      0.122757     -1.202906
H      -0.211963     -2.070568      0.320563
H      -1.758984      0.161559      1.784818
H      -2.366485     -1.541498      1.525377
H      -2.144072     -1.217315     -0.959242
H      -1.236801      0.950205     -1.882684
H      -2.639914      1.336824     -0.884583
H      -1.011089      1.562562     -0.241671
