19
Extracted from Q-Chem output
C       2.119629      0.813703     -0.131842
C       1.328154     -0.397804     -0.533897
O       0.487233     -0.680016      1.205617
C      -0.659152     -1.162145      0.624938
C      -1.709958     -0.845971      1.535522
C      -0.798718     -0.382166     -0.628980
C      -1.115418      1.083244     -0.654663
H       2.559545      0.689284      0.854910
H       1.490923      1.705560     -0.107225
H       2.913975      1.001536     -0.861367
H       1.823401     -1.350720     -0.383484
H       1.060697     -0.338962     -1.596534
H      -0.632632     -2.236290      0.384083
H      -1.832253      0.185697      1.838384
H      -2.401309     -1.580225      1.933106
H      -1.100754     -0.923925     -1.527401
H      -0.574139      1.559454     -1.478159
H      -2.175494      1.270900     -0.836715
H      -0.825357      1.572936      0.274430
