6
Extracted from Q-Chem output
O      -0.229361      1.632778      0.297529
C      -0.113790      0.494021      0.060197
C      -1.341390     -0.370548     -0.854846
N      -1.507338     -0.582589      0.296557
C       1.109371     -0.284682      0.084932
N       2.083608     -0.887849      0.106561
