14
smiles: [C:1]([N:2]=[C:3]=[O:4])([H:8])([H:9])[H:10].[N-:5]([C+:6]([N:7]([H:11])[H:14])[H:13])[H:12]
C        1.61952200       0.18755100       0.52563300
N        1.34210200      -0.02929000      -0.86476200
C        1.84823300      -0.48262300      -1.84560700
O        2.24286700      -0.89808400      -2.86330200
N       -1.71893000       1.46158500      -0.05506600
C       -2.15033100       0.37462800       0.43184900
N       -1.66743700      -0.89704500       0.25675500
H        2.41925900       0.91918400       0.65141200
H        1.90954700      -0.74275700       1.01650500
H        0.72341100       0.57126500       1.00925300
H       -1.00828100      -1.06848500      -0.48246600
H       -0.92446100       1.30983300      -0.67553400
H       -2.99952800       0.41613300       1.11589900
H       -2.25001600      -1.67178000       0.51498400
