14
Extracted from Q-Chem output
C       2.037269     -0.156704      0.438086
N       0.661885      0.217150      0.153250
C       0.364143      0.321942     -1.104056
O       0.890231      0.243044     -2.173263
N      -1.272081      0.768860     -1.159854
C      -1.968007     -0.175784     -0.486793
N      -1.731861     -0.402785      0.767996
H       2.741509      0.439127     -0.148961
H       2.229642     -1.211046      0.212097
H       2.239225      0.008988      1.496440
H      -0.678912     -0.092360      0.939673
H      -1.147962      1.557790     -0.529447
H      -2.674812     -0.800034     -1.034716
H      -2.187154     -1.171811      1.233919
