12
Extracted from Q-Chem output
O       1.762250      0.333159     -1.655561
C       1.567068     -0.019369     -0.356766
C       0.297796     -0.432848      0.187146
O       1.233354     -1.404786     -0.072621
N      -0.494751     -0.313584      1.380224
C      -1.142616     -0.390173      0.009517
C      -1.321284      0.789975      0.861818
H       2.350027      0.379030      0.277936
H      -1.834341     -1.174185     -0.257449
H       0.991470      0.083529     -2.173243
H      -0.830315      1.721210      0.589238
H      -2.258922      0.893924      1.394009
