11
Extracted from Q-Chem output
N      -1.174417      0.797279      0.756998
C      -0.954603     -0.418062      0.208605
O      -1.824336     -1.214372     -0.064950
C       0.483363     -0.748208     -0.119407
C       1.131983     -0.072586     -1.268608
O       1.425275      0.175481      0.453612
H      -0.409233      1.379410      1.044098
H      -2.118840      1.059943      0.973947
H       0.707357     -1.794025      0.072981
H       2.183256      0.089845     -0.326073
H       0.550467      0.813083     -1.551797
