9
Extracted from Q-Chem output
N      -0.822599     -0.905458      0.096637
C       0.256987      0.220631      0.249689
C       1.519480     -0.148950     -0.265600
N       2.536803     -0.524914     -0.653651
C      -0.277193      1.517541      0.079904
N      -0.777958      2.550494     -0.015733
H      -1.709241     -0.551255     -0.235142
H      -0.471730     -1.706076     -0.410249
H      -0.341406     -0.574563      1.132193
