15
Extracted from Q-Chem output
C      -2.512792     -0.539583      0.161739
N      -1.412904     -0.177141     -0.392798
C      -0.130255     -0.182124      0.251565
N       0.043065     -0.552228      1.497534
C       0.823056      0.287515     -0.625421
O       0.450368      0.697833     -1.898371
C       2.258530      0.375059     -0.275683
H      -3.429827     -0.523387     -0.409038
H       0.927764      1.499932     -2.123187
H      -2.495941     -0.834662      1.201066
H      -1.390843      0.130065     -1.359905
H      -0.676508     -1.186074      1.821947
H       2.406633     -0.080586      0.701705
H       2.873218     -0.138695     -1.021321
H       2.601105      1.416521     -0.222137
