16
Extracted from Q-Chem output
C       2.934990      0.269457      2.426799
C       1.880666      0.195247      1.422044
C       1.017513      0.135190      0.592959
C      -0.058314      0.060141     -0.389587
C      -1.417641     -0.196898      0.233011
C      -2.508656     -0.203627     -1.830331
N      -2.509151     -0.315302     -0.384768
H       2.898433      1.221472      2.958270
H       3.918164      0.177666      1.962806
H       2.828075     -0.532364      3.158791
H       0.156136     -0.727941     -1.119648
H      -0.099535      0.991698     -0.964820
H      -1.439178     -0.287290      1.319689
H      -1.935444     -1.014456     -2.293484
H      -2.078986      0.744561     -2.172761
H      -3.531974     -0.264140     -2.197139
