14
Extracted from Q-Chem output
C      -1.699454     -0.445056      0.157146
C      -1.316178      0.902996     -0.408092
C      -0.410469      0.215810      0.541342
C       1.436783      0.575204     -0.024146
C       2.033310     -0.625458      0.556284
O       0.738360     -0.991666      0.119837
H      -1.670454     -1.286642     -0.522476
H      -2.469728     -0.500749      0.916826
H      -1.813025      1.807933     -0.077680
H      -1.021587      0.911777     -1.449580
H      -0.297411      0.564588      1.554456
H       1.625665      0.619417     -1.103409
H       2.765244     -1.174458     -0.030622
H       2.188689     -0.692207      1.633220
