13
smiles: [C-:5]#[O+:6].[C:1]([C:2]1=[N:4][C:3]1([H:11])[H:12])([H:7])([H:8])[H:9].[H:10][H:13]
C       -1.90630000      -0.19324400       0.55289200
C       -0.78828300       0.30747100      -0.26330300
C        0.02650900       0.24335400      -1.45682300
N        0.10232000       1.17780400      -0.25733200
C        3.04794500       0.74070200       0.49280900
O        3.47335300       1.77872200       0.55277200
H       -1.99486000       0.38185100       1.47404700
H       -1.74571000      -1.24588500       0.79245500
H       -2.83740900      -0.12645900      -0.01252900
H        0.93367800      -2.30738100       0.96218100
H        0.81806700      -0.49464300      -1.55139300
H       -0.32228700       0.67709600      -2.38981900
H        1.29893700      -1.65893300       0.93969600
