13
Extracted from Q-Chem output
C      -1.689965     -0.215023      0.623831
C      -0.399757     -0.000448     -0.084127
C       0.218766      0.139492     -1.385104
N       0.412188      1.017705     -0.198035
C       2.095760      0.484260      0.500337
O       2.937924      1.208777      0.743776
H      -1.597178      0.067941      1.672793
H      -2.009359     -1.254301      0.560422
H      -2.458755      0.410634      0.165531
H       0.468548     -1.140563      0.512380
H       1.031560     -0.548727     -1.630076
H      -0.281621      0.591030     -2.235770
H       1.301104     -0.944540      0.649125
