18
Extracted from Q-Chem output
C      -1.812574     -0.173094     -1.006798
C      -1.091419      0.844734     -0.129915
C      -0.378135      0.232494      1.060820
N       1.833132     -0.266046      1.965658
C       1.311556      0.404136      0.918736
O       1.603753      1.575967      0.583680
C       1.591520     -0.625359     -0.357199
H      -2.311334      0.320781     -1.842116
H      -1.125354     -0.911765     -1.424688
H      -2.574182     -0.715515     -0.441775
H      -0.371694      1.430902     -0.706486
H      -1.810982      1.575374      0.247919
H      -0.563144      0.772271      1.984316
H      -0.602763     -0.823439      1.201977
H       1.412097     -1.192760      1.991747
H       1.100395     -0.133827     -1.189986
H       1.206008     -1.625213     -0.181637
H       2.667528     -0.627401     -0.492205
