19
Extracted from Q-Chem output
C       2.019260      0.252415     -0.416425
C       0.990253     -0.210999      0.609372
C      -0.432323     -0.263576      0.069505
C      -0.643664     -1.281578     -1.036132
C      -1.534436     -0.243690      1.081211
C      -1.125911      1.056112     -0.192170
O      -0.524228      2.080116      0.497439
H       1.756987      1.235598     -0.810149
H       2.098569     -0.439000     -1.257392
H       3.008076      0.325319      0.039550
H       1.020736      0.455176      1.472592
H       1.255124     -1.208265      0.974789
H      -0.004317     -1.070346     -1.894147
H      -0.421682     -2.291285     -0.677965
H      -1.676054     -1.258838     -1.388142
H      -1.294438      0.111526      2.075683
H      -2.311657     -0.998058      1.002393
H      -2.210790      0.712745      0.415622
H      -1.009464      2.878358      0.284814
