12
smiles: [C:1]([C:4](=[O:5])[H:12])([H:6])([H:7])[H:8].[C:2](=[N:3][H:11])([H:9])[H:10]
C       -0.22780200       1.86750500       0.69158300
C       -0.26238700      -2.15026800      -0.01493700
N       -0.25692500      -1.19908900      -0.84206000
C        0.83679800       0.85281200       0.98061800
O        0.85376300       0.14031100       1.94592700
H       -0.99911300       1.84562900       1.45891100
H       -0.66517300       1.67006300      -0.29048400
H        0.22524300       2.86136600       0.64294700
H       -0.54430900      -3.18079800      -0.25390500
H        0.03093300      -1.95317800       1.01678500
H       -0.55105700      -1.51596100      -1.76501900
H        1.64982000       0.78790600       0.22647200
