12
Extracted from Q-Chem output
C      -0.611226      0.981306      0.640583
C      -0.444567     -1.123007      0.247671
N       0.761889     -1.225034     -0.299443
C       1.084182      0.219195      0.428445
O       1.730416      0.206913      1.447226
H      -1.328399      0.665220      1.397904
H      -1.120421      1.245294     -0.289027
H      -0.134539      1.876968      1.037944
H      -1.365556     -1.199850     -0.326667
H      -0.504837     -1.339455      1.307482
H       0.746432     -1.105145     -1.306836
H       1.252244      0.794414     -0.490757
