15
smiles: [N:1]([C:2]([O:3][H:12])=[C:4]([H:10])[H:11])([H:8])[H:9].[N:5]1=[C:6]([H:13])[C:7]1([H:14])[H:15]
N        1.33922100      -0.15024500      -1.05635300
C        1.54511700      -0.70909600       0.18758100
O        2.11361300      -1.93229600       0.04565100
C        1.20391400      -0.16964200       1.36195800
N       -1.12465500       1.65323600      -0.86264900
C       -1.80873300       0.98625000      -0.06650900
C       -1.94123300       0.49423200      -1.41850000
H        2.00824000      -0.43543700      -1.75213800
H        1.15777400       0.83798100      -1.05234100
H        1.32702800      -0.71979600       2.28406900
H        0.76651200       0.81622100       1.41096700
H        2.25033900      -2.31081100       0.91626200
H       -2.03545700       0.95462400       0.98985000
H       -1.38398000      -0.37740100      -1.74646700
H       -2.80604200       0.75666900      -2.01944800
