16
Extracted from Q-Chem output
C      -1.206743     -0.244270     -0.435262
C      -0.098325      0.707276      0.067955
C       0.830490     -0.046769     -0.753355
O       0.144948     -1.616636     -2.119325
C       0.141052      0.656340      1.561958
O       1.338751      1.297239      1.952364
H      -0.720841     -1.089236     -1.300507
H      -1.580950     -0.860790      0.380099
H      -1.989042      0.288110     -0.967600
H      -0.247541      1.728640     -0.284319
H       1.441285     -0.813323     -0.298190
H       1.159944      0.316318     -1.713443
H       0.398635     -2.534469     -1.978014
H      -0.730015      1.074242      2.081233
H       0.241364     -0.385277      1.877322
H       1.239178      2.243255      1.832815
