19
smiles: [C:1]([O:2][C:3]([C@@:4]([C:5]([H:14])([H:15])[H:16])([O:7][H:19])[H:13])([H:11])[H:12])([H:8])([H:9])[H:10].[C:6]([H:17])[H:18]
C        2.65503700       0.36970500      -0.75191200
O        1.27801900       0.51129200      -0.98252200
C        0.51199700      -0.54480300      -0.45191800
C       -0.95026500      -0.19370400      -0.64738700
C       -1.87018700      -1.24616800      -0.06850500
C       -0.74571600       1.02633700       1.60438500
O       -1.24042900       1.03597700      -0.01139000
H        3.04664500      -0.54427000      -1.21626600
H        3.15192100       1.23203000      -1.19420100
H        2.87894900       0.33821300       0.32204300
H        0.75307300      -1.48936100      -0.96043000
H        0.72152600      -0.66476800       0.62147200
H       -1.13016700      -0.10098300      -1.72831800
H       -2.90923000      -0.95001500      -0.21171700
H       -1.69367700      -1.35932300       1.00306000
H       -1.71727400      -2.21123400      -0.55534800
H       -1.79509500       1.13551500       1.94906700
H       -0.37201000       2.06975000       1.66293300
H       -0.55208800       1.65405800      -0.27365200
