19
Extracted from Q-Chem output
C       2.654998      0.396083     -0.682088
O       1.266017      0.544538     -0.837787
C       0.535918     -0.589728     -0.427773
C      -0.926069     -0.246309     -0.467588
C      -1.868327     -1.263161      0.102771
C      -0.947185      0.984668      1.203801
O      -1.197048      1.500921     -0.242655
H       3.032097     -0.448969     -1.271026
H       3.122688      1.312630     -1.037816
H       2.917677      0.239635      0.370473
H       0.704278     -1.409606     -1.149738
H       0.831275     -0.908068      0.574088
H      -1.201526     -0.092594     -1.523088
H      -2.854895     -0.825090      0.252518
H      -1.512100     -1.653301      1.053375
H      -1.987491     -2.070814     -0.632387
H      -1.937273      1.062430      1.660416
H      -0.298165      1.725325      1.684352
H      -0.324089      1.772671     -0.560921
