17
smiles: [C:1]([C@@:2]1([O:3][H:12])[C@@:4]2([H:13])[C@:5]1([H:15])[C:6]([H:16])([H:17])[O:7]2)([H:8])([H:9])[H:10].[H:11][H:14]
C       -1.94938800       0.27679300       0.06193600
C       -0.56448300       0.28495000       0.64006500
O       -0.53994100       0.79800300       1.93396900
C        0.34635600      -0.83043600       0.27342300
C        0.56531700       0.54626800      -0.33003800
C        1.87390700       0.51601100       0.42995300
O        1.53514900      -0.74876800       1.05371500
H       -2.34236700       1.29337000       0.00903600
H       -1.95127100      -0.14513700      -0.94459100
H       -2.61321900      -0.31689500       0.69166500
H       -0.17789700      -1.64014700      -3.34554300
H        0.16007400       0.33701700       2.40948200
H        0.06893000      -1.79286200      -0.13935300
H        0.11822000      -1.35530700      -2.72459500
H        0.42155300       0.90736400      -1.33837900
H        2.04798800       1.30708400       1.16392700
H        2.75143000       0.39279700      -0.20680200
