17
Extracted from Q-Chem output
C      -2.265778     -0.539266     -0.001577
C      -0.966296      0.155764      0.179294
O      -1.065374      1.350094      0.730927
C       0.333168     -0.496715      0.207020
C       1.332746      0.182834     -0.763484
C       2.331638      0.042229      0.396001
O       1.203371     -0.122332      1.298433
H      -2.998138      0.114146     -0.473094
H      -2.146962     -1.441687     -0.595164
H      -2.644302     -0.810193      0.992065
H      -0.618866      0.127251     -1.800631
H      -0.185520      1.599506      1.059975
H       0.259307     -1.583070      0.094003
H       0.230910     -0.018964     -1.907626
H       1.071227      1.245663     -0.841343
H       2.947738      0.897493      0.675586
H       2.931488     -0.872644      0.387486
