10
Extracted from Q-Chem output
C      -1.346817      0.317180      0.045291
C      -0.731845      1.386762      0.043569
N       1.369480      1.215661     -0.019691
C       1.909934      0.186864     -0.045406
N       0.726617     -1.599642     -0.048524
C      -0.440263     -1.440130     -0.018061
H      -2.371948      0.005304      0.073439
H      -0.540664      2.433111      0.054846
H       2.755039     -0.464069     -0.073210
H      -1.337923     -2.034388     -0.011889
