19
Extracted from Q-Chem output
C       2.518313      0.504156     -0.665347
C       1.380795     -0.508183     -0.665348
C       0.337637     -0.256236      0.354438
C      -0.468501      1.023222      0.557972
C      -1.748554      0.182199      0.817695
C      -2.587529     -0.140911     -0.308634
C      -0.784211     -1.073971      0.744363
H       3.227306      0.297843     -1.467926
H       3.060278      0.479800      0.281584
H       2.140263      1.518939     -0.806958
H       0.861458     -0.497396     -1.642714
H       1.766982     -1.525078     -0.554473
H      -0.064034     -0.896330      1.669822
H      -0.546627      1.555040     -0.392642
H      -0.138542      1.731140      1.320054
H      -2.251465      0.312797      1.773006
H      -3.476783     -0.736827     -0.161824
H      -2.281322      0.085897     -1.321585
H      -0.997916     -2.113187      0.513900
