16
Extracted from Q-Chem output
C       1.818423      0.211983     -0.947114
C       0.768109      0.922037     -0.102839
C       0.080430     -0.017910      0.864295
O      -1.037486      0.485753      1.563870
C      -0.909354     -1.001004      0.377514
C      -1.840159     -0.583968     -0.585127
H       2.569381     -0.274628     -0.319853
H       2.338673      0.911650     -1.602232
H       1.365899     -0.558599     -1.576951
H       1.225082      1.715120      0.493684
H       0.026801      1.410635     -0.738853
H       0.811244     -0.454458      1.553215
H      -1.093758     -1.856832      1.015900
H      -1.861730      0.291864      0.457319
H      -2.740149     -1.166535     -0.726418
H      -1.495923     -0.012705     -1.439640
