11
Extracted from Q-Chem output
C      -1.621519     -0.205895     -0.212883
N      -0.251298     -0.636305     -0.060741
C       0.740324      0.269163      0.111841
N       0.542247      1.525417      0.084825
C       2.058231     -0.329668      0.316663
N       3.103418     -0.771517      0.484673
H      -1.974091      0.323534      0.675682
H      -2.244971     -1.081097     -0.384120
H      -1.711247      0.470884     -1.063335
H      -0.045695     -1.605874      0.088705
H       1.404601      2.041359      0.207220
