11
Extracted from Q-Chem output
C      -1.586132     -0.182605     -0.195618
N      -0.289094     -0.814393     -0.031921
C       0.839366     -0.230647     -0.327033
N       1.291890      1.389146      0.565587
C       2.180205     -0.589282     -0.055142
N       2.096297      0.374278      0.872922
H      -1.993222      0.117639      0.770745
H      -2.277688     -0.868177     -0.685929
H      -1.463887      0.703181     -0.814409
H      -0.257196     -1.719079      0.414173
H       1.557027      1.721732     -0.364445
