13
smiles: [C:1]([C:2](=[C:5]=[O:6])[H:10])([H:7])([H:8])[H:9].[C:3](=[N:4][H:13])([H:11])[H:12]
C        2.44183400       0.36989100       0.35269400
C        0.99730700       0.44705800      -0.06807800
C       -2.35551500      -1.11123900      -0.07486100
N       -1.94058500      -0.68448100      -1.18602900
C        0.14027800       1.28205600       0.45946500
O       -0.61798800       2.02301300       0.92871900
H        3.10670000       0.59043800      -0.48468600
H        2.66024800       1.08430100       1.14606900
H        2.68828300      -0.62648400       0.72457800
H        0.60524100      -0.19928500      -0.84276900
H       -1.63404900      -1.29284700       0.72241700
H       -3.40453700      -1.31997700       0.15864100
H       -2.71163100      -0.55825200      -1.84030000
