10
Extracted from Q-Chem output
O       1.099228     -0.807718     -0.186517
C       1.367545      0.446750      0.228885
N       0.424328      1.256912      0.425335
C      -0.809074      0.526387      0.114628
C      -0.335643     -0.879833     -0.301960
H       2.420255      0.662604      0.366853
H      -1.455267      0.509003      0.993849
H      -1.349139      1.040566     -0.682086
H      -0.580460     -1.135402     -1.333215
H      -0.688963     -1.673061      0.357299
