12
smiles: [C:5](=[N:6][H:12])([H:10])[H:11].[N:3](=[C:4]([H:8])[H:9])[H:7].[O+:1]#[C-:2]
O        1.73589300      -1.93766400      -2.54434700
C        1.46805700      -0.90722700      -2.18583600
N        0.20263900       1.50479900       0.01915200
C        0.21258700       2.75913700       0.14297400
C       -1.03552300      -2.19201700       1.16104000
N       -0.38530700      -1.56929500       0.27882300
H        0.65267300       1.21925800      -0.84953700
H        0.64650700       3.45279500      -0.58439300
H       -0.23784800       3.20465600       1.03056800
H       -1.49135400      -1.72823000       2.04170600
H       -1.16442600      -3.27009700       1.05797500
H       -0.33890800      -0.57391900       0.49322700
