12
Extracted from Q-Chem output
O       2.476311     -0.704420     -1.183816
C       1.604404     -0.426395     -0.505469
N       0.757053      1.386757     -0.301515
C      -0.433716      1.274657      0.231992
C      -0.941556     -0.907051      0.297678
N       0.182963     -1.556311      0.110961
H       0.687192      1.473983     -1.314892
H      -1.338715      1.423105     -0.350381
H      -0.512350      1.408779      1.306532
H      -1.367769     -0.782306      1.288476
H      -1.620412     -0.845354     -0.546125
H       0.639276     -1.769368      0.995294
