16
Extracted from Q-Chem output
C       1.350736     -0.800418     -0.093127
C       0.166672      0.147267     -0.048903
C       0.520847      1.572838     -0.404799
N      -0.973550     -0.414802     -0.835868
C      -1.744583     -0.636049      0.561705
C      -0.630573     -0.072277      1.258933
O      -0.332642      0.164021      2.404069
H       2.077523     -0.494272      0.659787
H       1.835767     -0.784169     -1.072068
H       1.046743     -1.823630      0.140420
H       1.002551      1.630090     -1.383670
H       1.206792      1.969179      0.345359
H      -0.369235      2.203389     -0.415533
H      -0.824025     -1.239577     -1.401476
H      -1.959767      0.124666     -0.506825
H      -2.383111     -1.493878      0.711217
