13
Extracted from Q-Chem output
C       0.758767     -0.885337      0.855046
C      -1.844052     -0.846532     -0.782773
O      -1.881814      0.216159     -0.031594
C      -1.027179      1.330678     -0.256717
N       0.209421      1.349738     -0.283472
C       1.146734      0.258758     -0.075714
H       0.347055     -0.504712      1.791290
H       1.655525     -1.459871      1.091540
H      -1.073848     -0.651341     -1.574826
H       0.033130     -1.580420      0.430473
H      -1.631275      2.226099     -0.371896
H       2.050829      0.731928      0.311724
H       1.416750     -0.121055     -1.065490
