13
Extracted from Q-Chem output
C       0.597483     -0.826319      0.689822
C      -1.294033     -0.979972     -0.380688
O      -1.770306      0.230160      0.019210
C      -1.038931      1.353040     -0.276056
N       0.203285      1.448703     -0.382170
C       1.108181      0.341119     -0.125812
H       0.362935     -0.544622      1.717263
H       1.292585     -1.665511      0.667080
H      -0.715063     -0.857727     -1.308725
H      -0.462620     -1.465432      0.465224
H      -1.685574      2.218288     -0.389918
H       1.966362      0.774301      0.398353
H       1.496523     -0.005495     -1.086795
