14
Extracted from Q-Chem output
C      -1.975279      0.929513      0.457219
C      -1.527675     -0.517950      0.346267
C       0.822355     -0.791605      0.278263
C       1.976285     -0.891784     -0.343919
N       2.656404      0.320396     -0.781948
N       2.206281      1.436346     -0.822640
N      -0.188156     -0.655217      0.913969
H      -2.988684      1.034810      0.067132
H      -1.966337      1.257125      1.497148
H      -1.309415      1.577963     -0.113264
H      -2.185690     -1.167659      0.924462
H      -1.538168     -0.850102     -0.695734
H       2.460020     -1.836395     -0.543330
H       3.633473      0.102457     -1.063882
