14
Extracted from Q-Chem output
C      -1.589499      0.956827      0.055883
C      -1.156731     -0.446153      0.400880
C       0.648471     -1.330987      0.448892
C       1.613987     -1.081840     -0.546365
N       1.983062      0.194677     -0.409216
N       1.312958      0.843608      0.517117
N       0.515385     -0.080015      1.052045
H      -2.650582      0.918082     -0.210064
H      -1.448978      1.642976      0.888691
H      -1.048402      1.342217     -0.808801
H      -1.566424     -0.848274      1.316158
H      -1.342054     -1.122003     -0.428666
H       2.072398     -1.724532     -1.279962
H       2.731823      0.683315     -0.876851
