15
Extracted from Q-Chem output
C      -1.086605     -1.037042      0.519456
C      -0.270056     -0.129313     -0.372815
C      -0.801210      0.553983     -1.578189
N      -0.574262      1.311723     -0.223870
C       1.190011     -0.527871     -0.414328
O       1.508721     -1.597827     -0.874628
N       2.105640      0.368882      0.064150
H      -2.130679     -0.716989      0.537348
H      -1.048132     -2.043065      0.102944
H      -0.703282     -1.080655      1.543185
H       0.159872      2.000170     -0.269195
H      -1.883992      0.381359     -1.618222
H      -1.325404      1.537451      0.413131
H       1.845590      1.051360      0.751716
H       3.058899      0.047191      0.087164
