15
Extracted from Q-Chem output
C      -1.135054     -1.074451      0.430248
C      -0.220828     -0.087891     -0.256906
C      -0.678762      0.649678     -1.458583
N      -0.395717      1.309094      0.165745
C       1.223118     -0.570835     -0.287877
O       1.479565     -1.695193     -0.660744
N       2.154051      0.320535      0.112381
H      -2.170901     -0.728735      0.393594
H      -1.068747     -2.034297     -0.079029
H      -0.845951     -1.227897      1.471892
H      -0.244402      1.832707     -0.833757
H      -1.773150      0.580904     -1.512926
H      -1.306827      1.461457      0.581365
H       1.888927      1.242459      0.404316
H       3.122773      0.069186      0.035529
