19
Extracted from Q-Chem output
C      -1.515457     -0.996341     -0.817303
C      -0.782442      1.328249      0.274377
C      -0.047266      0.579793      1.385002
C       1.135409      0.320413      0.406854
C       1.720267     -1.068869      0.227681
C       0.329664      0.979006     -0.713456
C      -1.058513      0.440275     -0.895460
H      -1.164989     -1.569384     -1.678678
H      -1.166280     -1.501400      0.082039
H      -2.607008     -1.039490     -0.809158
H      -1.288423      2.276020      0.402696
H       0.233364      1.215518      2.223581
H      -0.555076     -0.302890      1.781359
H       1.945122      1.002310      0.678296
H       0.964479     -1.809466     -0.033083
H       2.211490     -1.403389      1.144872
H       2.468974     -1.068318     -0.568167
H       0.767549      1.615722     -1.472545
H      -1.562779      0.987631     -1.687876
