9
Extracted from Q-Chem output
N      -0.866580      0.954560      1.869275
C      -0.765916      0.615672      0.660367
N       0.295431     -0.179683      0.244101
C       0.430226     -0.553814     -1.029434
O       1.530987     -1.298511     -1.112571
H      -1.688159      1.530419      2.015441
H      -1.437125      0.873608     -0.159372
H       0.958190     -0.455313      0.965041
H       1.627255     -1.566400     -2.028331
