16
Extracted from Q-Chem output
C      -1.159365      1.430028     -0.291395
C      -0.259211      0.342340      0.275000
C      -0.924550     -1.037526      0.168714
O      -0.486812     -1.960443      1.123920
N       1.024952      0.413263     -0.428775
C       2.098006     -0.355815     -0.182521
O       2.142764     -1.286333      0.599237
H      -0.676070      2.408536     -0.249514
H      -2.083911      1.490126      0.281220
H      -1.419615      1.217107     -1.332066
H      -0.076657      0.530442      1.338239
H      -1.997438     -0.910251      0.333572
H      -0.790982     -1.409099     -0.858686
H       0.482827     -1.965581      1.097830
H       1.148662      1.156364     -1.094690
H       2.977400     -0.063158     -0.780083
