12
Extracted from Q-Chem output
N       2.038092     -0.199389      0.009397
C       0.651213     -0.051895      0.065620
N      -0.041402     -1.302746     -0.225823
C      -1.272209     -1.071894      0.055525
C      -1.356999      0.252877      0.624638
C      -1.049446      1.226158     -0.397270
N       0.191896      1.102843     -0.700046
H       2.550502      0.646299      0.198608
H       2.386069     -0.999662      0.511620
H      -2.079551     -1.776935     -0.097954
H       0.180188      0.206507      1.142230
H      -1.719933      1.956370     -0.832718
