15
Extracted from Q-Chem output
C       2.259700      0.385156      0.157872
N       0.895514      0.009449     -0.177035
C       0.379024     -1.253120      0.079824
C      -0.960786     -1.125727      0.225416
C      -1.306732      0.249884      0.059869
N      -2.619905      0.723742      0.148858
C      -0.203846      1.068084     -0.104737
H       2.959534     -0.353216     -0.234934
H       2.457537      1.362229     -0.277845
H       2.359924      0.455511      1.240259
H       1.013820     -2.125774      0.100934
H      -1.650671     -1.939788      0.401996
H      -3.293917      0.164665     -0.349595
H      -2.684510      1.692565     -0.123935
H       0.545705      0.502064     -1.155766
