9
Extracted from Q-Chem output
O       1.990437     -0.373915      1.547448
C       1.366321      0.095084      0.718251
N       0.750819      0.818255     -0.128106
C      -0.656760      0.575435      0.192225
C      -0.989853     -0.775155      0.210146
O      -0.155753     -1.685763      0.059809
H       1.103615      0.870738     -1.080437
H      -1.251782      1.432893      0.453036
H      -2.052140     -1.011523      0.386299
