14
Extracted from Q-Chem output
C      -1.959565     -0.072891      0.081082
C      -0.556071      0.209625     -0.392066
N       1.171111     -0.779285      1.218806
C       0.541815      0.389094      0.599325
C       1.936653      0.030045      0.276252
C      -0.277286      0.345029     -1.665733
O      -0.023370      0.455960     -2.792117
H      -2.319914      0.739142      0.717640
H      -1.989879     -0.994328      0.667307
H      -2.654481     -0.180840     -0.751235
H       0.843697     -1.622833      0.761439
H       0.377150      1.197955      1.306175
H       2.751594      0.596203      0.710126
H       2.142133     -0.377753     -0.708269
