12
Extracted from Q-Chem output
O       2.554455      1.969040      1.046838
C       1.973619      1.164113      0.377340
O       0.146259     -0.151115     -0.350170
C      -1.066687     -0.733979     -0.173159
C      -1.645597     -1.456984     -1.116288
C       0.536899      0.773864      0.634696
H       2.452082      0.647391     -0.478114
H      -1.519277     -0.581740      0.804394
H      -1.181625     -1.595891     -2.083925
H      -2.598026     -1.926833     -0.920603
H      -0.081066      1.679325      0.610153
H       0.472093      0.343573      1.641958
