7
Extracted from Q-Chem output
O       2.365384     -0.609167      0.019378
C       1.502427      0.145797      0.052408
O      -0.359951     -1.196941     -0.107149
C      -1.111710     -0.236585     -0.049171
N      -0.996385      1.037087      0.055854
O       0.840605      1.131409      0.109029
H      -2.240369     -0.271599     -0.080347
