15
Extracted from Q-Chem output
O       2.294733      0.377864      1.064156
C       1.371013      1.108021      0.290075
C       0.467745      0.214082     -0.559029
C      -0.632230     -0.394001      0.292298
O      -0.147187     -1.221803      1.280130
C      -1.857971      0.407856      0.655857
C      -2.224575     -0.521159     -0.189676
H       1.801470     -0.257908      1.589589
H       1.964157      1.737911     -0.374139
H       0.753605      1.766094      0.913377
H       1.080199     -0.564692     -1.020376
H      -0.007094      0.800080     -1.346112
H      -1.162872     -1.172144     -0.631425
H      -0.761439     -1.169271      2.022308
H      -2.995614     -1.147300     -0.615967
