9
Extracted from Q-Chem output
N      -1.923934     -0.304201      0.286801
C      -0.668824     -0.174031      0.132119
N       0.417421     -0.976833      0.431925
N       1.443664     -0.269763      0.020075
N       1.235104      0.872569     -0.505825
N      -0.082559      0.959532     -0.448445
H      -2.137645     -1.192144      0.722754
H      -0.552740      1.773591     -0.801065
H       2.388468     -0.610902      0.110750
