13
smiles: [C-:6]#[O+:7].[C:1]([O:2][C+:3]([N:4]([H:11])[H:13])[N-:5][H:12])([H:8])([H:9])[H:10]
C       -1.78002400       0.02624600      -1.22463600
O       -1.45165800      -0.23250100       0.12890400
C       -0.19346100      -0.00798000       0.57810300
N        0.76111700       0.24095400      -0.38784200
N        0.09002500       0.01104000       1.80913000
C        3.17555600      -0.02253000       1.94910200
O        3.41128200      -0.15887500       3.03900900
H       -2.86367000      -0.04397200      -1.28769200
H       -1.34846300      -0.72258200      -1.89680700
H       -1.45868200       1.02320100      -1.53098000
H        0.70963900      -0.30296900      -1.23269600
H       -0.75111300      -0.08680700       2.36639900
H        1.68473800       0.27745700       0.01101700
