13
Extracted from Q-Chem output
C      -1.728226      0.080155     -1.095286
O      -1.264541     -0.042821      0.243794
C       0.043452     -0.175057      0.445754
N       0.973308     -0.159404     -0.482111
N       0.473423     -0.311346      1.686666
C       2.064920      0.091484      1.734608
O       2.543034      0.161525      2.805475
H      -2.812774      0.081055     -1.033076
H      -1.397115     -0.764953     -1.702040
H      -1.392927      1.019641     -1.540606
H       0.754134      0.180096     -1.402060
H      -0.187571     -0.220123      2.443590
H       1.930884      0.059750      0.238541
