16
Extracted from Q-Chem output
C       2.427442      0.330698      0.030118
C       1.383135     -0.640289     -0.349792
C       1.186629     -1.928018     -0.507519
C      -0.040716     -0.595925     -0.664344
N      -0.969013     -0.334502      0.390970
C      -2.320115      0.016723      0.007465
C      -1.394807      1.048889      0.528204
H       2.568444      1.079198     -0.752814
H       3.376316     -0.176042      0.202267
H       2.144334      0.857896      0.943605
H      -0.336496     -0.261525     -1.666126
H      -0.057038     -1.896349     -0.846574
H      -3.104664     -0.384674      0.636869
H      -2.551517      0.049932     -1.054104
H      -1.007361      1.768869     -0.187395
H      -1.487501      1.412986      1.544168
