11
Extracted from Q-Chem output
O      -0.851906      2.252622     -0.364252
C      -0.560654      1.092607     -0.044258
C      -1.022172     -0.178529     -0.545072
C      -0.101198     -1.236442     -0.264763
C       1.086808     -0.774330      0.182627
C       1.044204      0.689052      0.316138
O       1.880363      1.494973      0.530185
H      -0.971445      0.645939      0.980376
H      -1.953724     -0.296884     -1.085047
H      -0.359862     -2.283918     -0.345635
H       1.864984     -1.362547      0.651391
