16
smiles: [C:1]([N:2]1[C:3]([H:11])([H:12])[C:4]1([H:13])[H:15])([H:8])([H:9])[H:10].[C:5](=[O:6])=[C:7]([H:14])[H:16]
C        1.23213000       0.05998700      -1.80260500
N        0.58620800      -0.00108100      -0.50816700
C        1.42799200      -0.38565500       0.60401000
C        0.41867400      -1.32242000       0.05673000
C       -2.95104100       0.62252300       1.11142900
O       -3.85566300      -0.09261200       1.18122200
C       -1.92682500       1.43159000       1.03286900
H        1.68709900       1.04330500      -1.93354100
H        0.48548800      -0.08000200      -2.58617000
H        2.01491500      -0.70415200      -1.93056700
H        2.47197900      -0.60479700       0.39434400
H        1.24761900       0.13197600       1.53873800
H        0.78788700      -2.16824000      -0.51774600
H       -1.92578100       2.34080500       1.61316100
H       -0.51064800      -1.49791600       0.58558300
H       -1.10207500       1.17735800       0.38592200
