16
Extracted from Q-Chem output
C       1.303682      0.000201     -1.830141
N       0.723956      0.233331     -0.521853
C       1.065578     -0.701237      0.515359
C      -0.293896     -0.707925     -0.099502
C      -1.495036     -0.195636      0.634703
O      -2.475542     -0.893402      0.728306
C      -1.423418      1.186446      1.225566
H       2.280212      0.483610     -1.878512
H       0.661689      0.442942     -2.592529
H       1.430659     -1.068300     -2.056701
H       1.709048     -1.539798      0.262900
H       1.216939     -0.287342      1.505891
H      -0.518445     -1.548657     -0.751173
H      -2.332262      1.385380      1.788356
H      -0.550548      1.293279      1.872081
H      -1.302617      1.917107      0.424128
