15
Extracted from Q-Chem output
C       2.384456      0.589413     -0.325409
O       0.997141      0.379720     -0.361468
C       0.603155     -0.846227      0.218635
C      -0.887012     -0.890538      0.273044
C      -2.849735      0.544892      0.278671
N      -1.562114      0.240571      0.192470
H       2.918075     -0.186050     -0.888585
H       2.762057      0.596054      0.704781
H       2.581153      1.557766     -0.783292
H       1.064070     -0.924240      1.219948
H       0.989408     -1.690137     -0.372646
H      -1.421132     -1.811868      0.447501
H      -3.568068     -0.236835      0.465587
H      -3.139010      1.566733      0.108495
H      -0.944563      1.025745      0.001906
