11
Extracted from Q-Chem output
N      -1.785197      1.519063     -0.203519
C      -0.697082      0.628254     -0.078281
C      -0.473009     -0.833444     -0.046066
N       0.874366     -1.347044     -0.029009
C       1.859371     -0.562488     -0.057343
N      -0.203056      1.759392     -0.091708
H      -2.149732      1.706718      0.732407
H      -1.005524     -1.229610      0.824889
H      -0.996437     -1.251631     -0.912231
H       2.856257     -0.998837     -0.046488
H       1.787143      0.527150     -0.094293
