11
Extracted from Q-Chem output
N      -1.651354      1.564561     -0.271553
C      -0.622804      0.770735     -0.044837
C      -0.598651     -0.744750      0.042726
N       0.713701     -1.295819     -0.170882
C       1.682897     -0.523256     -0.178237
N       0.406984      1.503750      0.211477
H      -2.499492      1.149164      0.116422
H      -0.955218     -1.072120      1.022949
H      -1.289428     -1.142878     -0.703879
H       2.712767     -0.831718     -0.345711
H       1.557070      0.616078      0.009906
