15
Extracted from Q-Chem output
O       1.044754     -2.399685      0.512683
C       0.548203     -1.263101      0.247792
C      -0.871989     -1.018199     -0.086324
C      -1.193235      0.453056      0.189248
C      -0.128792      1.389122     -0.381308
C       1.281790      0.951005     -0.063680
C       1.614268     -0.306763      0.273027
H      -0.980799     -1.246232     -1.154187
H      -1.526540     -1.705814      0.451495
H      -2.177005      0.701603     -0.212468
H      -1.245172      0.599540      1.272010
H      -0.230765      1.461307     -1.472801
H      -0.290297      2.402608     -0.005585
H       2.046946      1.720581     -0.150171
H       2.052815     -1.795297      0.592075
