13
smiles: [C:1](=[C:2]1[C:3]([H:11])=[N:4][C:5]([O:6][H:13])=[N:7]1)([H:8])[H:9].[H:10][H:12]
C        1.53369100       0.48222700      -1.75747600
C        0.78201000       0.47237800      -0.65982700
C        0.12213600      -0.69891200      -0.05793100
N       -0.53458800      -0.35715900       0.98915200
C       -0.29385900       1.03177600       1.05704800
O       -0.85682400       1.68328600       2.05651400
N        0.44806600       1.56395500       0.14934200
H        1.97214800       1.39933200      -2.12824300
H        1.71610100      -0.43465100      -2.30315800
H       -2.35125100      -3.37527200       0.60019700
H        0.15992000      -1.71908100      -0.42205300
H       -2.09163100      -2.74305700       0.89565300
H       -0.60838300       2.61096300       1.97301600
