12
smiles: [H:10][H:11].[N:1]#[C:2][C@@:3]1([H:7])[C:4]([H:8])([H:9])[C:5][N:6]1[H:12]
N        3.40083200       0.33728200      -0.18789700
C        2.31352300       0.06838500       0.05886100
C        0.92395100      -0.26559400       0.36490600
C       -0.15617000       0.83226000       0.14347900
C       -0.79149500      -0.10520000      -0.90429400
N        0.19399900      -0.95992700      -0.68589400
H        0.88434800      -0.76865700       1.33292400
H       -0.78425800       1.05185800       1.00542000
H        0.22078200       1.76197800      -0.28030000
H       -3.49469900       0.01687000      -0.22895000
H       -4.11800100       0.04719700       0.17718100
H        0.36724900      -1.85989400      -1.11229600
