12
Extracted from Q-Chem output
N       3.202808      0.046415     -0.099252
C       2.074559     -0.078992      0.062610
C       0.634157     -0.228788      0.278678
C      -0.291189      1.010220      0.129981
C      -1.171214      0.091830     -0.730794
N      -0.137400     -0.797990     -0.809532
H       0.453245     -0.740500      1.234136
H      -0.701237      1.429391      1.042392
H       0.164947      1.785492     -0.484071
H      -2.280024     -0.225297     -0.331421
H      -2.141849     -0.453314      0.622072
H      -0.150623     -1.751553     -1.130932
