11
Extracted from Q-Chem output
N      -1.332496      0.872254      0.790866
C      -0.785557     -0.262905      0.485384
O      -1.687245     -1.170874      0.539493
C       0.614826     -0.550110      0.106891
C       1.165535      0.057841     -1.106219
O       1.511984      0.538280      0.177166
H      -2.281945     -0.050120      0.862633
H      -0.832315      1.743068      0.878691
H       0.993332     -1.510054      0.443115
H       1.953984     -0.461728     -1.640910
H       0.535515      0.715704     -1.697018
