17
Extracted from Q-Chem output
C       1.539929      0.768041     -0.627032
C       1.226967     -0.498856      0.137416
C       0.661545     -0.525634      1.527925
O      -0.532402      0.314664      1.256669
C      -1.183870     -0.355062      0.279938
C      -1.913496      0.510694     -0.702515
O      -0.055155     -1.162881     -0.426449
H       1.504251      0.616896     -1.708006
H       2.558414      1.063230     -0.367995
H       0.871725      1.580539     -0.350661
H       1.992240     -1.258181     -0.023111
H       1.230050     -0.036772      2.315330
H       0.036951     -1.777497      0.433971
H      -1.803385     -1.178864      0.663493
H      -1.241402      1.219344     -1.182438
H      -2.398914     -0.100619     -1.462634
H      -2.677761      1.067851     -0.158949
