11
Extracted from Q-Chem output
N      -1.193856      1.547780     -0.057887
C      -0.298593      0.637663      0.077766
C      -0.658764     -0.854877      0.008321
N       0.566827     -1.612104     -0.233109
C       1.623129     -1.086201     -0.204186
N       1.001854      0.853903      0.347699
H      -2.102298      1.138570     -0.253567
H      -1.086389     -1.204185      0.949450
H      -1.368356     -1.064254     -0.790485
H       2.230862     -0.159185     -0.058140
H       1.275970      1.819091      0.212224
