16
Extracted from Q-Chem output
C      -1.233965      1.628548     -0.016052
C      -0.403124      0.407167      0.324656
C      -1.178028     -0.880854      0.133327
O      -1.014619     -1.866129      0.805658
N       0.793368      0.364420     -0.508570
C       1.654907     -0.800945     -0.351828
O       2.037771     -0.973634      0.980314
H      -0.627980      2.528433      0.086587
H      -2.098649      1.712212      0.644205
H      -1.601719      1.580660     -1.045619
H      -0.080113      0.446832      1.367162
H      -1.861861     -0.907887     -0.744515
H       1.193135     -1.728554     -0.723512
H       1.360344     -1.496877      1.418847
H       0.577034      0.523923     -1.484672
H       2.556743     -0.611187     -0.936435
