14
Extracted from Q-Chem output
C       1.599852     -0.238004      0.341747
C       0.375130      0.503768     -0.183255
C      -0.527658     -0.391293     -0.995366
C      -1.634929     -0.965345     -0.549966
O      -0.133453      1.140076      2.083828
C      -0.400709      1.193948      0.915568
H       1.297238     -1.020111      1.038270
H       2.268967      0.440755      0.870745
H       2.147736     -0.701616     -0.479890
H       0.702287      1.317540     -0.846208
H      -0.202520     -0.587635     -2.013439
H      -1.997515     -0.816815      0.462297
H      -2.221125     -1.619597     -1.183145
H      -1.270364      1.786644      0.562235
