14
Extracted from Q-Chem output
C       1.603279     -0.231018      0.420703
C       0.521022      0.500457     -0.379516
C      -0.481051     -0.354616     -1.106605
C      -1.366458     -0.863225     -0.069726
O      -1.489100      0.387940      0.891953
C      -0.530437      1.124104      0.445990
H       1.167466     -0.956257      1.110129
H       2.223052      0.456958      1.001453
H       2.235454     -0.777822     -0.280806
H       0.983768      1.255172     -1.017898
H      -0.923837      0.014548     -2.023609
H      -0.983924     -1.631357      0.605892
H      -2.394038     -1.075889     -0.351117
H      -0.564825      2.166704      0.761793
