15
Extracted from Q-Chem output
C       1.658535     -0.529518      0.177007
C       0.421284      0.154181      0.714609
C      -0.023561      1.477107      0.097715
O      -0.561672      0.846319     -1.484569
C      -1.338637      0.847300     -0.290203
C      -0.997937     -0.448171      0.438776
O      -1.129262     -1.651435     -0.252962
H       2.539088      0.095110      0.335644
H       1.571445     -0.716125     -0.894506
H       1.817771     -1.487701      0.673377
H       0.533445      0.349138      1.787475
H       0.073601      1.740103     -1.270452
H      -2.319474      1.304381     -0.381901
H      -1.568745     -0.548587      1.361642
H      -0.740781     -1.538747     -1.124505
