13
Extracted from Q-Chem output
O       1.234688      2.029179      0.774663
C       0.757473      0.979498      0.425073
C       1.473670     -0.248000     -0.006004
O       0.616417     -1.247239     -0.017920
C      -0.558246     -0.710321     -0.490481
C      -1.548575     -0.552523      0.573292
C      -0.665360      0.649762      0.096912
H       2.523545     -0.481809      0.105444
H       1.065058      0.009400     -1.693884
H       0.252707     -0.296560     -1.829973
H      -1.374050     -1.030635      1.529733
H      -2.588774     -0.403597      0.314897
H      -1.232831      1.446331     -0.363923
