14
Extracted from Q-Chem output
C      -1.584799     -0.443674      0.612006
C      -0.960581      0.326130     -0.554664
C      -1.516042      1.678133     -0.662804
N      -1.976906      2.727166     -0.707885
C       0.561184      0.425201     -0.648533
O       1.058841     -0.456843      0.147460
C       2.491775     -0.566471      0.177588
H      -1.317269      0.015556      1.563609
H      -2.670989     -0.447652      0.526178
H      -1.229718     -1.472804      0.617417
H      -1.206534     -0.171481     -1.505324
H       2.747744     -1.587689     -0.099178
H       2.811699     -0.365765      1.198457
H       2.915654      0.153068     -0.520179
