18
Extracted from Q-Chem output
C      -2.883101      0.330802     -0.056730
C      -1.557773      0.610251      0.643757
C      -0.367356      0.603299     -0.217534
C       0.894568      0.412144      0.510511
C       2.090549     -0.004101     -0.341419
C       1.929302     -1.419082     -0.879672
H      -2.978814      0.952576     -0.946781
H      -2.935720     -0.712358     -0.372650
H      -3.729484      0.522965      0.605434
H      -1.539285      1.675338      0.947936
H      -1.460508      0.036353      1.579247
H       1.030203     -1.487987     -1.497415
H       1.052896      1.446257      0.874182
H       0.811648     -0.206660      1.419896
H       3.007188      0.067796      0.251449
H       2.185052      0.698234     -1.172815
H       1.833328     -2.143127     -0.065634
H       2.782411     -1.716220     -1.491721
