16
Extracted from Q-Chem output
C      -1.515599     -0.926069      0.465439
C      -0.413435     -0.096879      0.062060
C       0.667063     -0.818953     -0.709917
O       1.634150      0.088793     -1.209060
C       0.049094      0.950891      1.063025
O       0.708332      2.064836      0.532720
H      -1.435672      0.208793     -0.615389
H      -1.679189     -1.878908     -0.015119
H      -2.181710     -0.590271      1.244497
H      -0.749618      0.886780     -1.031802
H       0.214144     -1.400711     -1.518411
H       1.111001     -1.516659      0.009642
H       2.363898     -0.403221     -1.585958
H      -0.817823      1.318304      1.612347
H       0.676476      0.390467      1.771501
H       1.368177      1.745722     -0.092567
