13
Extracted from Q-Chem output
C       0.673837      1.099000      1.150288
O       0.585607     -0.570383      1.291299
C       0.186724     -1.126746      0.009937
C      -1.089854     -0.577438     -0.575478
O      -1.450473      0.598124      0.099012
C      -0.080278      1.136029     -0.116837
C       0.239446     -0.082024     -1.032618
H       1.743640      1.218507      0.933096
H      -0.154036     -0.612655      1.910469
H       0.520258     -2.141961     -0.146284
H      -1.859570     -1.180837     -1.037647
H      -0.102663      2.115431     -0.591667
H       0.791115     -0.120014     -1.959067
