13
Extracted from Q-Chem output
C       0.638514      1.007999      1.176930
O       0.636038     -0.721305      1.261887
C       0.176317     -1.168793     -0.009817
C      -1.096541     -0.610011     -0.582441
O      -1.457953      0.568776      0.094470
C      -0.095728      1.090104     -0.101795
C       0.236288     -0.102433     -1.038626
H       1.700986      1.243608      1.096823
H      -0.005646     -0.107168      1.853762
H       0.472101     -2.186093     -0.224129
H      -1.866227     -1.197766     -1.064291
H      -0.100300      2.088183     -0.538471
H       0.773560     -0.107290     -1.974223
