17
Extracted from Q-Chem output
C       1.550638     -1.360706      0.118193
C       0.597342     -0.265813     -0.329524
C      -0.852574     -0.729497     -0.497210
C      -1.691148      0.535028     -0.359051
C      -0.846030      1.560177      0.351756
C       0.504197      0.915728      0.640195
C      -1.252501      1.762925     -1.053844
H       1.238231     -1.772081      1.082045
H       1.580685     -2.181127     -0.601600
H       2.567762     -0.979842      0.230138
H      -1.128788     -1.430563      0.296668
H      -1.021009     -1.226553     -1.455004
H      -2.768441      0.411231     -0.292631
H      -1.184036      2.330342      1.039218
H       0.519043      0.566843      1.677640
H       1.326323      1.623374      0.513553
H       0.932624      0.127536     -1.297182
