11
Extracted from Q-Chem output
N       1.441203     -1.237015     -0.499030
C       0.615917     -0.285142     -0.196136
C      -0.562024     -0.833731      0.409049
O      -1.544499      0.147537      0.008452
C      -0.829885      1.328241     -0.034296
O       0.530326      0.984838     -0.511294
H       2.414064     -1.094151     -0.734929
H       0.386054     -1.914865     -0.150056
H      -0.486031     -0.910795      1.499557
H      -1.262546      2.022008     -0.752529
H      -0.694638      1.784598      0.955273
