11
Extracted from Q-Chem output
N       1.615047     -0.231125     -0.440450
C       0.339380      0.101103     -0.036519
C      -0.123805      1.210333      0.528271
O      -1.535640      1.130549      0.672320
C      -2.040081      0.010545      0.233322
C      -0.854281     -0.770000     -0.283604
H       2.362063      0.319196     -0.052362
H       1.822712     -1.214879     -0.447692
H       0.327814      2.123205      0.877305
H      -1.018190     -0.990025     -1.343782
H      -0.821015     -1.736513      0.230653
