11
Extracted from Q-Chem output
N       1.697362     -0.303401     -0.360437
C       0.390611      0.025600     -0.005640
C      -0.135075      1.192828      0.409631
O      -1.489359      1.115579      0.528363
C      -1.939729     -0.157474      0.297696
C      -0.759313     -0.848183     -0.114345
H       2.382118      0.381365     -0.083565
H       1.978832     -1.224507     -0.064542
H       0.314220      2.147259      0.635845
H      -1.662620     -0.454939     -0.957760
H      -0.744682     -1.913626     -0.305531
