12
Extracted from Q-Chem output
C      -1.646281     -0.239752      0.574977
C      -0.695833     -0.041688     -0.530301
C      -0.208024      0.059597     -1.688866
C       0.888701      0.483447     -0.348067
C       1.404559     -0.096535      0.918107
O       1.992711     -0.389314     -0.313888
H      -2.643215     -0.342145      0.146694
H      -1.427823     -1.141264      1.148452
H      -1.650103      0.617579      1.249129
H       1.134614      1.519812     -0.540482
H       0.877095     -0.915329      1.396589
H       1.972155      0.553337      1.579540
