16
Extracted from Q-Chem output
C       2.268087      0.355878      0.094372
C       1.964134     -1.114234      0.058996
C       0.543499     -1.297304     -0.098834
C      -0.298141     -0.495938      0.443084
C      -1.758488     -0.233327      0.559452
C      -2.157201      1.126446     -0.008338
H       1.637866      0.993130     -0.513193
H       0.452970      0.288631      0.948127
H       3.319664      0.644952      0.056049
H       2.590895     -1.460260     -0.786165
H       2.314860     -1.673784      0.927628
H      -2.046797     -0.289314      1.613089
H      -2.290681     -1.033995      0.043102
H      -1.923892      1.186803     -1.072805
H      -3.226972      1.301353      0.117237
H      -1.623383      1.933622      0.497716
