13
smiles: [C:5](=[O:6])([H:11])[H:13].[O:1]([C:2](/[C:3](=[N:4]/[H:12])[H:10])([H:8])[H:9])[H:7]
O       -1.19808200      -0.55780700       1.48325700
C       -1.43243200      -0.24106000       0.12534000
C       -0.89103700       1.11566100      -0.22539500
N       -0.16559200       1.28702200      -1.24435400
C        2.15524500      -0.93677800      -0.02824900
O        1.64464600      -1.12626500       1.03625800
H       -0.25579200      -0.68802900       1.60589800
H       -2.51833600      -0.23931300      -0.00095200
H       -1.00945800      -0.98199800      -0.55995800
H       -1.16148300       1.91701400       0.47372700
H        1.62858800      -0.40542800      -0.84391900
H        0.11114400       2.26219600      -1.33942000
H        3.18218600      -1.28207500      -0.25542600
