13
Extracted from Q-Chem output
O      -1.800978      0.162951      1.443753
C      -1.166780     -0.514975      0.383904
C      -0.321448      0.467553     -0.392457
N       0.730144      1.003958      0.249771
C       1.498484     -0.404138     -0.471759
O       1.801513     -1.313353      0.260635
H      -1.108185      0.504075      2.017058
H      -1.952859     -0.924719     -0.249988
H      -0.525952     -1.328851      0.741588
H      -0.790491      0.970757     -1.241449
H       0.511073     -0.578780     -1.227744
H       1.074347      1.840071     -0.208526
H       2.118303      0.187719     -1.152812
