15
smiles: [C-:1]([N+:2]1=[C:3]=[C:4]([H:12])[C:5]([N:6]([H:13])[H:14])=[C:7]1[H:15])([H:9])[H:10].[H:8][H:11]
C        2.06181100       1.44967300       0.06332600
N        0.94823900       0.83467200       0.01425200
C        0.95222700      -0.68658300       0.02183000
C       -0.37740500      -0.92475100      -0.04123600
C       -1.17872400       0.29838600      -0.08521300
N       -2.52310800       0.30340700      -0.15603400
C       -0.33711200       1.37239500      -0.04940700
H        1.45264100      -4.03966100       0.28717300
H        2.95484400       0.84233000       0.10772700
H        2.09149600       2.53337000       0.05859100
H        1.54452800      -3.30416500       0.21572600
H       -0.81981600      -1.91233300      -0.05795000
H       -3.02637300      -0.56197900      -0.13908100
H       -3.04913500       1.15563000      -0.15184900
H       -0.52233800       2.43330900      -0.06574400
