15
Extracted from Q-Chem output
C       2.142760      0.366750     -0.147415
N       0.865812      0.083115      0.015133
C       0.399844     -1.231785     -0.091882
C      -0.941285     -1.148313     -0.204365
C      -1.339820      0.249266     -0.015183
N      -2.653390      0.643857      0.127175
C      -0.213858      0.978855      0.189631
H       2.591008     -1.391493      0.625122
H       2.736864     -0.180417     -0.858249
H       2.480763      1.346944      0.171632
H       1.804651     -1.747731      0.354464
H      -1.633379     -1.977907     -0.191346
H      -3.304401      0.206127     -0.502210
H      -2.814044      1.630365      0.237103
H      -0.057190      2.040018      0.290006
