10
Extracted from Q-Chem output
N       1.843609     -0.026737      0.981944
C       0.663326     -0.079211      0.553353
C       0.128474      0.737039     -0.604422
O      -1.244254      0.320832     -0.689284
C      -1.395218     -0.583843      0.282286
N      -0.406412     -0.878721      1.026298
H       1.957553     -0.668290      1.763689
H       0.628127      0.508956     -1.545149
H       0.164931      1.809116     -0.415141
H      -2.387964     -1.011241      0.360740
