14
Extracted from Q-Chem output
C      -1.931980     -0.143079     -0.557063
C      -0.827611     -0.148433      0.465850
O       0.163635     -1.179873      0.201879
C       0.267297      0.927069      0.360417
C       1.173027     -0.251604      0.123758
C       2.457927     -0.470677     -0.086511
H      -1.526352     -0.014224     -1.562302
H      -2.486847     -1.081990     -0.526484
H      -2.628375      0.673164     -0.352363
H      -1.225079     -0.278997      1.475803
H       2.836684     -1.474719     -0.221224
H       0.162832      1.605713     -0.485773
H       0.467424      1.495570      1.266848
H       3.145318      0.361783     -0.125458
