15
Extracted from Q-Chem output
C      -0.797975      1.316597      0.479897
C      -0.459479     -0.142078      0.687819
C      -1.030100     -1.169437     -0.298661
O       0.274576     -1.718146     -0.549500
C       0.908899     -0.691468      0.210102
C       2.050109      0.306320     -1.886296
C       1.747599      0.219240     -0.635124
H      -1.851449      1.498251      0.701889
H      -0.207257      1.958841      1.136954
H      -0.610903      1.622453     -0.551082
H      -0.639405     -0.433220      1.723348
H      -1.459528     -0.732550     -1.206156
H      -1.714630     -1.918191      0.104662
H       1.538034     -1.111095      1.000656
H       2.295331      1.050606     -0.164930
