15
Extracted from Q-Chem output
C      -1.064020      1.343213      0.409635
C      -0.524323     -0.051017      0.596110
C      -0.961786     -1.184931     -0.338457
O       0.394681     -1.664409     -0.446039
C       0.894981     -0.484946      0.133516
C       1.289589      0.633083     -1.185057
C       2.340557      0.246011     -0.631327
H      -2.113622      1.375538      0.711375
H      -0.517884      2.058712      1.027606
H      -0.980014      1.658991     -0.628332
H      -0.633532     -0.362278      1.637730
H      -1.330430     -0.838167     -1.307592
H      -1.624216     -1.946769      0.073182
H       1.561964     -0.701228      0.974643
H       3.311875     -0.025680     -0.273416
