14
smiles: [C:1]([C:2]1=[C:7]([H:13])[C:5](=[O:6])[N:4]=[C:3]1[H:11])([H:8])([H:9])[H:10].[H:12][H:14]
C       -1.90948500       0.60915300      -0.25270800
C       -0.56984600       0.16952400       0.21376600
C        0.52326300       1.12207000       0.62588600
N        1.60298000       0.57015600       1.00252400
C        1.34675200      -0.85850000       0.87982000
O        2.14545000      -1.70000900       1.14942600
C       -0.05367300      -1.04330800       0.37204100
H       -1.81908200       1.25274100      -1.13132900
H       -2.41203800       1.19346000       0.52236000
H       -2.54217600      -0.23913600      -0.50924000
H        0.40977100       2.20352400       0.60938400
H        2.29082300      -0.51276500      -1.99196100
H       -0.50046200      -2.00905400       0.19282700
H        1.66449300      -0.79597300      -2.27814500
