15
smiles: [C:1]1([H:8])=[C:3]([C:4]([C@@:5]2([H:14])[O+:6]=[C-:7]2)([H:12])[H:13])[C:2]1([H:10])[H:11].[H:9][H:15]
C       -1.58523900      -0.43014300      -0.73818400
C       -1.54556200      -0.24276900       0.75270100
C       -0.46670400      -0.71851700      -0.17532600
C        0.93239400      -1.18717200      -0.23689600
C        1.91847400      -0.23232300       0.38103600
O        1.80121600       1.17244100       0.01166100
C        1.52480900       0.92433200       1.24111900
H       -2.19051500      -0.35740000      -1.62417500
H       -1.26026300       3.07118400      -0.86003000
H       -1.48992600       0.76210000       1.16927300
H       -2.05203700      -0.95913400       1.39940900
H        1.01465000      -2.12814000       0.31850800
H        1.21105300      -1.40013300      -1.27282800
H        2.95125200      -0.56167000       0.42420400
H       -0.75055200       2.54337700      -0.73362400
