14
Extracted from Q-Chem output
C       2.091532     -0.785087     -1.462004
C       1.588196     -0.353380     -0.464952
C       0.979634      0.195944      0.745225
C      -0.254387      1.060389      0.478938
C      -1.478326      0.341108     -0.006489
C      -1.608209     -0.958710     -0.219267
H       2.532494     -1.172920     -2.349351
H       0.723682     -0.623060      1.423481
H       1.730178      0.799111      1.261621
H      -0.511570      1.585505      1.405002
H       0.003266      1.842384     -0.242345
H      -2.334916      0.985413     -0.190139
H      -2.546664     -1.372385     -0.567213
H      -0.793345     -1.658611     -0.075340
