14
Extracted from Q-Chem output
C       2.443324     -0.657238     -1.145531
C       1.766027     -0.299383     -0.224101
C       0.913104      0.162486      0.878146
C      -0.229547      1.036280      0.487916
C      -1.538321      0.487541      0.069851
C      -1.506150     -0.882198     -0.336786
H       3.048743     -0.978040     -1.959680
H       0.501438     -0.728760      1.377087
H       1.550265      0.715390      1.578043
H       0.017503      2.050479      0.184705
H      -1.596630      1.063943     -0.885275
H      -2.400140      0.806256      0.664652
H      -2.176363     -1.627500      0.071853
H      -0.717491     -1.218301     -0.995890
