15
smiles: [C:1]([N:2]1[C:3]([H:11])=[C+:4][C:5](=[C:6]([H:14])[H:15])[N-:7]1)([H:8])([H:9])[H:10].[H:12][H:13]
C        2.63012700      -0.64260700       0.12325400
N        1.23352300      -0.25315700       0.07378500
C        0.76491900       1.05771100      -0.13424300
C       -0.60095000       1.09203600      -0.11477500
C       -0.85764200      -0.33427700       0.12521500
C       -2.03232900      -0.96179300       0.24723100
N        0.32574100      -1.11742200       0.23280500
H        3.12084100      -0.31250200      -0.79115600
H        2.68347900      -1.72274400       0.21983300
H        3.10050100      -0.16031600       0.97948400
H        1.51348000       1.82487100      -0.27928100
H       -3.19207800       2.06145800      -0.66639000
H       -3.92149600       2.14134800      -0.79312800
H       -2.95007300      -0.39325500       0.17122700
H       -2.08206300      -2.03068400       0.42172400
