15
Extracted from Q-Chem output
C       2.481496     -0.585049      0.095087
N       1.127073     -0.079628      0.123301
C       0.705440      1.170904     -0.290254
C      -0.652677      1.137101     -0.381869
C      -0.970524     -0.148024      0.148313
C      -2.250377     -0.600715      0.449119
N       0.139817     -0.903130      0.360527
H       3.170789      0.214924      0.359166
H       2.728871     -0.967458     -0.896391
H       2.552167     -1.393784      0.818555
H       1.439564      1.905149     -0.584749
H      -2.224548      1.279862     -0.850684
H      -2.915226      0.763984     -0.874776
H      -2.987061      0.048934      0.891158
H      -2.439447     -1.668222      0.522588
