10
Extracted from Q-Chem output
N       1.859955      0.003822      0.014872
C       0.641308     -0.273592      0.533735
O       0.460539     -0.825604      1.595805
N      -0.404460      0.150040     -0.298639
C      -1.681051      0.006530     -0.038292
O      -2.334632      0.504412     -1.001386
H       2.671726     -0.257487      0.541320
H       1.956711      0.467464     -0.867557
H      -1.074997      0.678596     -1.319914
H      -2.124048     -0.453381      0.840476
