14
smiles: [C:1](=[O:4])([H:9])[H:10].[N:2](=[C:3]([H:8])[H:11])[C:5](=[O:6])[C:7]([H:12])([H:13])[H:14]
C       -2.27716800      -1.17898100       0.55316600
N       -0.13432500       0.40468900      -0.37579400
C       -0.66791500       1.53658500      -0.23974600
O       -3.07416500      -0.31525200       0.77361000
C        1.21848000       0.33566900      -0.77693000
O        1.59998000       0.80521100      -1.81661100
C        2.08539600      -0.44420500       0.17085700
H       -1.72172700       1.60028800       0.02455700
H       -2.20338900      -1.66860600      -0.43679000
H       -1.57029600      -1.53479700       1.32705600
H       -0.11870400       2.47232900      -0.38029500
H        2.02303300      -0.01723600       1.17368900
H        3.11426700      -0.43475600      -0.17974800
H        1.71892200      -1.46984600       0.23379100
