16
Extracted from Q-Chem output
C       1.499761     -0.850598     -0.218242
C       0.394047     -0.115034      0.491932
C       0.068979      1.277235      0.411850
C      -1.067458      1.025028     -0.558165
C      -1.025004     -0.466306      0.062869
O      -1.198478     -1.552600     -0.797529
H       1.662473     -1.830607      0.233439
H       1.226909     -1.026468     -1.262781
H       2.430871     -0.286675     -0.168249
H       1.366236      0.453337      1.520994
H      -0.185020      1.822505      1.309587
H       1.475313      1.370985      0.979862
H      -2.000516      1.586465     -0.476860
H      -0.765067      0.936650     -1.602162
H      -1.718329     -0.505147      0.907115
H      -2.121337     -1.808782     -0.813238
