11
Extracted from Q-Chem output
C      -2.020752     -0.336146     -0.670250
C      -0.592289      0.403573      1.003286
O      -0.689202     -0.156127     -0.181210
O       0.691885      0.520597      1.319390
C       1.710998     -0.055786      0.580820
N       2.789593      0.562933      0.481859
H      -2.730606      0.043339      0.062744
H      -2.106413      0.207452     -1.609610
H      -2.176998     -1.400097     -0.841741
H       1.471105     -1.047158      0.200270
H       3.470272      0.004588     -0.024063
