11
Extracted from Q-Chem output
C      -1.938763      0.139331     -0.225667
C      -0.569920     -0.461363     -0.166007
O      -0.270054     -1.573718     -0.484239
O       0.322925      0.453411      0.318484
C       1.630805      0.074314      0.457007
N       2.441000      0.920888      0.892717
H      -2.251478      0.425442      0.779326
H      -1.917322      1.046020     -0.830537
H      -2.634923     -0.581564     -0.644152
H       1.818731     -0.956805      0.162878
H       3.368998      0.514045      0.948846
