13
Extracted from Q-Chem output
C      -1.641683      0.402054     -0.115913
C      -0.316399      0.594760      0.591996
O      -0.051161     -0.180898      1.576868
C       0.863233      0.423756     -0.960662
O       0.729763      1.271222     -1.763418
C       1.537262     -0.735469     -0.646465
C       1.610811     -1.536265      0.333731
H      -2.438677      0.652036      0.587222
H      -1.769202     -0.643282     -0.403592
H      -1.733950      1.041238     -0.992698
H       0.028073      1.632499      0.695487
H       0.774873     -1.045647      1.174412
H       2.184886     -2.422725      0.547983
