13
Extracted from Q-Chem output
O      -0.723551      1.298710      0.396622
C      -1.118476      0.095811      0.380869
C      -1.382273     -0.610636     -0.921203
C       0.079025     -0.832992     -0.802928
O       0.873131      0.073903     -1.205236
C       1.724359      0.769525      0.077034
O       1.954670      0.026639      0.990104
H       0.514658      1.334767      0.164412
H      -1.171555     -0.473442      1.310484
H      -1.990377     -1.504453     -0.825573
H      -1.674110      0.050396     -1.730117
H       0.462019     -1.659918     -0.206354
H       2.451031      1.430963     -0.419643
