15
Extracted from Q-Chem output
C       2.057986     -0.032809     -0.549286
C       0.627258     -0.019767     -0.172591
C      -0.188266     -1.085497      0.017908
C      -1.574517     -0.697404      0.558227
C      -1.470794      0.385619     -0.409149
O      -0.506987      1.802592      1.079155
C      -0.277393      1.232489     -0.089783
H       2.205792      0.510547     -1.485826
H       2.463763     -1.040137     -0.649789
H       2.622250      0.503394      0.217426
H       0.049433     -2.119970     -0.204720
H      -2.348842     -1.434876      0.366938
H      -1.534647     -0.367327      1.592087
H      -2.114034      0.460317     -1.284941
H      -0.011000      1.902831     -0.937227
