10
Extracted from Q-Chem output
N       3.230290     -0.548615     -0.128411
C       2.096025     -0.387662     -0.054272
C       0.690229     -0.162114      0.040550
C       0.124902      1.025437      0.371551
O      -1.206760      0.962712      0.350446
C      -1.489933     -0.353007     -0.006020
C      -0.351858     -1.166446     -0.146330
H       0.554067      1.985067      0.619658
H      -2.529695     -0.627095      0.107073
H      -1.178161     -0.669004     -1.157001
