13
Extracted from Q-Chem output
C      -1.834138     -0.221244     -0.007349
N      -1.115456      0.985899      0.361775
C      -0.583499      0.146471     -0.714116
C       0.537294     -0.830620     -0.548907
C       1.853579      0.046988      0.328826
O       0.936365     -0.891751      0.810279
H      -1.792286     -1.068783      0.669222
H      -2.782762     -0.075484     -0.509494
H      -0.594315      0.797168      1.213297
H      -0.670481      0.567778     -1.709013
H       1.730458     -0.181360     -0.874013
H       2.886429     -0.261087      0.476258
H       1.616084      1.083801      0.548486
