14
Extracted from Q-Chem output
O       1.848581      0.614150      0.709037
C       1.332230     -0.091573     -0.410144
C       0.153039     -0.922570      0.057386
C      -0.980977     -0.084373      0.627635
C      -1.780438      0.677300     -0.390297
O      -1.628458      0.612754     -1.580602
H       2.529323      1.216666      0.408664
H       2.096572     -0.754477     -0.833385
H       1.013508      0.602338     -1.195380
H       0.502104     -1.621142      0.821520
H      -0.210790     -1.512603     -0.786709
H      -1.698305     -0.705128      1.177773
H      -0.604848      0.636837      1.361023
H      -2.571542      1.331821      0.033479
