17
Extracted from Q-Chem output
O       2.970252     -0.072770     -1.705320
C       2.519180     -0.247758     -0.358026
C       1.052578     -0.239681     -0.186879
C      -2.006463     -0.802585      1.017691
C      -1.807515      0.280588     -0.055373
C      -0.727316      1.239536      0.255129
O       0.515469      0.905406      0.163154
H       2.553666      0.719256     -2.051059
H       2.955784      0.519373      0.293361
H       2.928030     -1.213299     -0.056088
H       0.400250     -1.044485     -0.494508
H      -2.384437     -0.359828      1.939648
H      -2.723479     -1.553085      0.681037
H      -2.735937      0.838653     -0.187228
H      -1.589047     -0.200656     -1.021593
H      -1.072302     -1.314353      1.254571
H      -0.870673      2.253992      0.593991
