17
Extracted from Q-Chem output
O       2.826959     -0.392184     -1.426644
C       2.123368     -0.531635     -0.198347
C       0.685596     -0.152994     -0.296339
C      -1.323970     -0.797571      0.819284
C      -1.873823      0.302642     -0.111903
C      -0.887240      1.315428      0.399647
O       0.406631      1.099787      0.007465
H       2.797145      0.531805     -1.683289
H       2.598252      0.045515      0.602461
H       2.194405     -1.589637      0.059397
H       0.094826     -0.636322     -1.065219
H      -1.977975     -0.911083      1.685404
H      -1.075411     -1.785747      0.441150
H      -2.896345      0.593882      0.131404
H      -1.835094      0.096548     -1.185544
H      -0.726528      0.320455      1.395694
H      -1.094908      2.376960      0.506472
