11
Extracted from Q-Chem output
O       0.739758     -1.059022      1.924813
C       0.454142     -0.545739      0.892925
C       1.010537     -0.432539     -0.538411
C      -0.232355      0.399115     -0.807198
N      -0.931027     -0.178388      0.353308
C      -0.289346      1.195861      0.438221
H       1.957800      0.091250     -0.631921
H       1.041849     -1.417190     -1.016825
H      -0.764325      0.546916     -1.735950
H      -1.901219     -0.399938      0.517419
H      -1.027686      1.982672      0.565811
