16
smiles: [C:1]([C:2]([O:3][H:11])([H:10])[H:13])([H:7])([H:8])[H:9].[C:4](=[C:5]([H:14])[H:15])([O:6][H:16])[H:12]
C        2.15018800      -0.53799000       0.01692800
C        0.94584400      -0.71265900       0.92276300
O        0.38468000       0.52043500       1.33293200
C       -1.80868000       0.74786800      -1.33992700
C       -2.51824400       0.01762400      -0.49187000
O       -0.65701600       1.40747200      -1.07642400
H        1.88718600       0.05858100      -0.85804400
H        2.52373700      -1.50646500      -0.32278600
H        2.96690500      -0.03350600       0.54097400
H        1.21113200      -1.32620800       1.79372300
H        1.05366100       1.01716000       1.80733200
H       -2.10298200       0.88940600      -2.37344800
H        0.14635300      -1.23410100       0.39349100
H       -2.22057200      -0.12199900       0.54165500
H       -3.42662200      -0.46155400      -0.82569600
H       -0.41284300       1.27014500      -0.15708300
