14
Extracted from Q-Chem output
C       1.816955      0.723312     -0.088940
C       0.894607     -0.315601      0.480277
O      -0.062570      0.103768      1.443834
C      -0.538511     -0.420222      0.204537
C      -1.320994      0.533876     -0.650420
O      -2.612777      0.745113     -0.119087
H       1.297667      1.654511     -0.307987
H       2.278549      0.353705     -1.006989
H       2.613318      0.940758      0.624861
H       1.389867     -1.246277      0.754935
H      -1.000214     -1.402096      0.299707
H      -1.462613      0.104916     -1.644681
H      -0.784591      1.481445     -0.761008
H      -2.508693      1.090610      0.770960
