16
Extracted from Q-Chem output
C       2.693108     -0.138143     -0.127090
O       1.494362      0.329621     -0.422041
C       0.393852     -0.111138      0.100827
C      -0.846556      0.588045     -0.251833
C      -2.132107      0.148016      0.383443
C      -1.912027     -0.108552     -1.072015
H       2.143260      0.185525      1.677071
H       2.779669     -1.193594      0.104501
H       3.487068      0.379744     -0.642629
H       0.372520     -1.141524      0.446441
H       1.355716      0.204596      1.833035
H      -0.722649      1.649899     -0.426556
H      -2.838643      0.913727      0.673303
H      -2.087580     -0.697321      1.059082
H      -1.713094     -1.125774     -1.384155
H      -2.460068      0.486540     -1.790665
