14
Extracted from Q-Chem output
C      -1.750037     -0.753817     -0.001909
C      -0.758814      0.396678      0.007898
O      -0.405520      0.804634      1.244673
C       1.528752      1.030065     -0.068016
C       1.619393     -0.279262      0.405151
C       0.613249      0.142384     -0.701441
H      -2.648999     -0.455585      0.539092
H      -1.321877     -1.621726      0.504769
H      -2.030363     -1.042540     -1.018226
H      -1.154491      1.222475     -0.608692
H       2.123291      1.916904     -0.224397
H       2.526162     -0.869350      0.384045
H       0.911096     -0.342677      1.288131
H       0.682037     -0.085974     -1.759051
