10
smiles: [C:4](#[N+:5][N-:6][H:10])[H:9].[O:1]([C:2]#[C:3][H:8])[H:7]
O       -2.64091300       0.31482800       1.50034300
C       -1.53757200       0.83076800       1.03218900
C       -0.49505700       1.26418600       0.64067300
C        2.61853700      -0.65315000      -0.45179800
N        1.53364200      -0.98316000      -0.78701500
N        0.47101700      -1.29511300      -1.32514900
H       -3.40301200       0.73940500       1.09521000
H        0.42968100       1.65139700       0.28856000
H        3.29601700      -1.05411400       0.28116900
H       -0.29805000      -0.83841600      -0.83604300
