8
Extracted from Q-Chem output
O       0.026584      1.761513      0.763788
C      -0.710414      0.971548      0.238285
C      -0.304358     -0.407917     -0.137638
N       0.652190     -1.122405      0.824110
C       1.110304     -0.727004     -0.253897
H      -1.758200      1.239479     -0.004213
H      -1.054143     -1.030658     -0.615275
H       2.033855     -0.684904     -0.811535
