12
Extracted from Q-Chem output
N       2.815386      1.044031     -0.424641
C       1.968633      0.384581     -0.019455
C       0.844454     -0.443234      0.478424
O       0.424580     -0.018763      1.744260
C      -1.700299     -0.450309     -0.135750
C      -1.266847      0.651183     -0.645437
C      -0.273885     -0.459657     -0.569241
H       1.223647     -1.459357      0.609807
H      -2.504665     -1.028386      0.283230
H      -1.448782      1.662142     -0.965887
H      -0.095828      0.784479      1.645331
H       0.022139     -0.981549     -1.479298
