17
Extracted from Q-Chem output
C       1.970566      0.519496      0.016698
C       0.581090     -0.027162      0.164688
C       0.363301     -1.392432      0.638173
C      -1.410375     -1.001643     -0.601413
C      -1.702890      0.465688     -0.425310
C      -0.545438      0.958481      0.460470
O       0.176499     -0.832886     -0.970603
H       1.980320      1.284428     -0.761742
H       2.679862     -0.262745     -0.253414
H       2.294160      0.978220      0.952737
H      -0.365101     -1.687540      1.371753
H       1.183371     -2.083900      0.471590
H      -1.806338     -1.424594     -1.527171
H      -2.676144      0.616399      0.045467
H      -1.691967      1.033140     -1.370220
H      -0.238627      1.977731      0.217674
H      -0.796790      0.928858      1.522295
