12
Extracted from Q-Chem output
O       2.707786     -0.576676      0.144293
C       1.914656      0.253884      0.012994
C      -0.716698     -1.344591     -0.194684
C      -1.143563      0.023651      0.232627
C      -0.383870      1.117787      0.237141
C       1.033403      1.220157     -0.124602
H      -0.374151     -1.947015      0.652332
H       0.099442     -1.302054     -0.919626
H      -1.546382     -1.882679     -0.655233
H      -2.169735      0.133776      0.567874
H      -0.832453      2.056500      0.543780
H       1.444368      2.157988     -0.477358
