12
Extracted from Q-Chem output
O       2.431270     -0.727439     -0.184428
C       1.417342     -0.129834     -0.080744
C      -0.189922     -1.149539      0.045567
C      -1.149869      0.029948      0.272222
C      -0.508612      1.219114      0.076497
C       0.868817      1.147664     -0.152656
H      -0.161346     -1.972512      0.747954
H       0.189735     -1.399820     -0.957185
H      -1.246316     -1.121151     -0.544897
H      -2.129710     -0.095488      0.706872
H      -1.024496      2.165204      0.185079
H       1.534364      1.998244     -0.109979
