13
Extracted from Q-Chem output
O       0.827343      1.847056     -0.571748
C       0.702105      0.732386      0.277873
C       0.851846     -0.549057     -0.562335
O       0.746151     -1.607328      0.411501
C      -0.628108     -1.254408      0.506542
C      -0.729339      0.267731      0.492575
C      -0.693614     -0.548300     -0.789999
H       1.358547      0.813031      1.151030
H       1.648961     -0.668330     -1.289518
H      -1.316120     -1.912753      1.016299
H      -1.561198      0.802000      0.931450
H       0.445864      2.612957     -0.140535
H      -1.343287     -0.604433     -1.648704
