13
Extracted from Q-Chem output
O       0.918121      2.020058     -0.086952
C       1.390932      0.838991      0.092233
C       0.822180     -0.456426     -0.405198
O       0.624232     -1.333935      0.708609
C      -0.809167     -1.102500      0.582461
C      -1.122551      0.316268      0.590981
C      -0.649742     -0.342827     -0.705924
H       2.445027      0.851604      0.375879
H       1.522732     -0.907427     -1.121202
H      -1.448099     -1.928329      0.862088
H      -2.179507      0.560859      0.672720
H      -0.063402      1.859365     -0.119867
H      -1.141606     -0.445149     -1.661398
