16
smiles: [C:1]([C@@:2]([C:3](=[C:4]([H:14])[H:15])[H:13])([C:6]#[N:7])[H:11])([H:8])([H:9])[H:10].[O:5]([H:12])[H:16]
C       -1.56423200      -0.20648000      -0.43387000
C       -0.47319400      -0.66296500       0.54459700
C        0.39395000       0.48831400       0.99085500
C        1.68442900       0.58593000       0.72413100
O        1.06686600       0.29941100      -2.38431300
C       -1.08393400      -1.31748800       1.70967700
N       -1.57523100      -1.81713500       2.61807000
H       -1.09907700       0.23029600      -1.31741100
H       -2.20504100       0.54549400       0.02830400
H       -2.18867300      -1.04579100      -0.73994200
H        0.15834600      -1.41050700       0.05685400
H        1.26787200       0.81689800      -1.60357800
H       -0.11466700       1.27385200       1.54318700
H        2.21372500      -0.18954900       0.18052100
H        2.26129300       1.44469900       1.04330000
H        1.47965400       0.76575200      -3.11224900
