15
Extracted from Q-Chem output
C      -1.006112     -1.129932      0.206887
C       0.101270     -0.242557     -0.295599
C       0.850730     -0.619215     -1.491440
O       1.408954     -0.807487     -0.199477
C       0.043843      1.219435      0.104874
N       0.173794      1.482126      1.527217
H      -1.972285     -0.791314     -0.173812
H      -0.846364     -2.160420     -0.108933
H      -1.045761     -1.117077      1.298216
H       0.591700     -1.531757     -2.022073
H       1.327781      0.148875     -2.094940
H       1.013849      1.048182      1.887523
H      -0.897636      1.651690     -0.246873
H       0.848234      1.747668     -0.412511
H      -0.610934      1.117178      2.048741
