15
Extracted from Q-Chem output
O      -2.454165     -0.863101     -0.469941
C      -1.752393     -0.406369      0.539777
C       0.012231      0.091843     -0.152056
C       1.112219     -0.795812      0.372074
O       2.388584     -0.347557     -0.002809
C       0.173711      1.514560     -0.407868
O       0.197407      0.584963     -1.484679
H      -1.155814     -0.467750     -0.605085
H      -2.002711      0.573768      0.972495
H      -1.363957     -1.113539      1.291155
H       1.084837     -0.800775      1.463499
H       0.927707     -1.823212      0.030382
H       2.407332     -0.285263     -0.962062
H       1.133547      1.969186     -0.185186
H      -0.692209      2.169739     -0.388814
