16
Extracted from Q-Chem output
C      -0.482578      1.009179     -0.588263
C      -0.175030      0.210332      0.689925
C      -1.097617     -0.928272      1.065220
O      -0.497997     -1.791420      2.006745
N       1.087222     -0.246039      0.067792
C       0.998197      0.794830     -0.956869
O       1.342496      0.392480     -2.242642
H      -0.822163      2.036171     -0.477897
H      -1.150134      0.474451     -1.266402
H       0.963347     -0.480952     -2.377155
H      -0.012060      0.855851      1.559390
H      -2.010491     -0.542523      1.524955
H      -1.379711     -1.477092      0.156605
H       0.261647     -2.192250      1.576158
H       1.915590     -0.231113      0.646699
H       1.614133      1.676054     -0.753572
