17
smiles: [C:1](=[C:2]1[C:3]([H:12])([H:13])[C@@:4]2([O:5][H:14])[C:6]([H:15])([H:16])[C@@:7]12[H:17])([H:8])[H:9].[H:10][H:11]
C        1.91222900       1.79742100       0.49828700
C        0.88134900       1.01888900       0.22556200
C        0.46890400      -0.37734200       0.68116200
C       -0.72108400      -0.26766800      -0.27516900
O       -1.15732600      -1.29926500      -1.07949700
C       -1.55716100       0.91671200       0.04638900
C       -0.26325500       1.10933200      -0.72478000
H        2.66065200       1.50607200       1.22545800
H        2.04467400       2.74846000      -0.00386100
H        0.46138800      -4.18399000      -0.30175500
H        0.18317400      -3.55210100      -0.58051700
H        0.24951700      -0.53221100       1.74028500
H        1.18295900      -1.12793800       0.33900600
H       -1.90327600      -1.72809500      -0.65528000
H       -2.44315700       1.01717000      -0.56940400
H       -1.65289200       1.28986500       1.06063600
H       -0.26202500       1.55246100      -1.71088300
