14
Extracted from Q-Chem output
C       0.852354     -0.514913      1.336506
C       0.070767      0.830145     -1.593083
O      -0.472311     -0.404785     -1.752040
C      -0.960940     -0.798736     -0.457697
C      -0.300784      0.135856      0.573657
C       0.167272      1.246009     -0.339121
H       1.355794      0.210455      1.978798
H       1.592679     -0.913982      0.639241
H       0.497615     -1.333342      1.967728
H       0.372570      1.314073     -2.511255
H      -2.048522     -0.683871     -0.465719
H      -0.715016     -1.851121     -0.310151
H      -1.049450      0.486205      1.288757
H       0.590832      2.183548     -0.014346
