14
Extracted from Q-Chem output
N      -2.358405     -0.327103      0.149573
C      -1.080329      0.054378     -0.029364
C       0.115585     -0.631449      0.530332
C       1.228486      0.175712     -0.102625
N       2.563805     -0.099285      0.281284
C       0.802535      1.202114     -0.864994
N      -0.663718      1.043617     -0.757389
H      -3.117972      0.223879     -0.205641
H      -2.574005     -1.019170      0.841201
H       0.101736     -1.697122      0.278793
H       3.156864      0.633756     -0.085084
H       2.895589     -0.981737     -0.088252
H       0.128174     -0.551035      1.621907
H      -1.283152      1.664503     -1.252947
