17
Extracted from Q-Chem output
C      -1.714066      0.771406     -0.554429
C      -1.418162     -0.536451      0.168515
C       0.935476     -0.827606     -0.812047
C       1.958453      0.023597     -0.678528
C       1.855344      0.694297      0.622541
C       0.771133      0.241396      1.261728
C       0.076116     -0.790415      0.419401
H      -2.788672      0.904078     -0.691903
H      -1.937928     -0.552141      1.131031
H      -1.338825      1.628537      0.007543
H      -1.819804     -1.375306     -0.407852
H       0.733213     -1.465877     -1.662122
H      -1.244281      0.793374     -1.539317
H       2.743743      0.198778     -1.401893
H       2.556821      1.430421      0.992089
H       0.425338      0.545578      2.240765
H       0.166101     -1.761926      0.927471
