16
smiles: [C:1]([C:2]1([C@@:7]2([H:16])[C:5]([H:14])=[N:6]2)[C:3]([H:11])=[C:4]1[H:13])([H:8])([H:9])[H:10].[H:12][H:15]
C        1.43498900      -0.60268200       1.46340100
C        0.52823200      -0.04370500       0.38272700
C        1.09461400       0.66807500      -0.80708700
C        0.50980500       1.41848700       0.06107600
C       -2.03148200      -0.36752700       0.65592500
N       -1.88675900      -0.24703000      -0.57652600
C       -0.74016000      -0.84591300       0.21960300
H        0.94013600      -0.58438800       2.43877200
H        2.35555700      -0.02258300       1.53507900
H        1.70471200      -1.64174900       1.25284600
H        1.60948300       0.56972800      -1.74697100
H       -1.07654400       0.75322400      -3.78432800
H        0.19401800       2.39936600       0.37164600
H       -2.77155200      -0.14473800       1.41263000
H       -1.29596800       0.58732200      -3.09241500
H       -0.59553800      -1.91742300       0.08685600
