16
Extracted from Q-Chem output
C       1.591289     -0.700274      0.963148
C       0.428219     -0.094174      0.222916
C       0.616211      0.867570     -0.888450
C       0.023634      1.342952      0.215401
C      -1.963236      0.083315      0.147500
N      -1.828707     -0.636924     -0.911165
C      -0.883978     -0.883244      0.207909
H       1.315127     -0.944149      1.992764
H       2.436668     -0.011928      0.996308
H       1.923044     -1.624383      0.481780
H       1.393170      1.103397     -1.597425
H      -0.314304      0.462069     -2.025777
H      -0.042098      2.233714      0.814229
H      -2.744138      0.684058      0.583561
H      -1.024569     -0.029095     -1.927091
H      -0.945011     -1.868092      0.663397
