10
Extracted from Q-Chem output
C       2.338843      0.108767      0.458076
C       1.161402      0.091595      0.209202
C      -0.206370      0.045241     -0.101964
C      -1.131564      1.079302      0.250400
O      -2.309227      0.924880      0.485552
N      -1.881273     -1.447213     -0.155019
C      -0.771043     -1.222091     -0.622646
H       3.380100      0.137150      0.679101
H      -0.682548      2.088980      0.208564
H      -0.145971     -1.915827     -1.193886
