21
smiles: [C:1](=[C:2]([C@:6]1([C:7]([H:19])([H:20])[H:21])[C:3]([H:12])([H:13])[C@:4]1([C:5]([H:15])([H:16])[H:17])[H:14])[H:11])([H:9])[H:10].[H:8][H:18]
C        2.64228600       0.04526400      -0.23254900
C        1.50293500      -0.61899500      -0.37108700
C       -0.62353300      -1.58496400       0.61945200
C       -1.02392900      -0.62313000      -0.45170000
C       -2.25818500       0.23223600      -0.32940000
C        0.23546100      -0.36726700       0.35436800
C        0.26133500       0.73533300       1.38328600
H        0.58425400       1.70515100      -1.91380400
H        2.75341600       0.86860300       0.46309000
H        3.51283100      -0.21816600      -0.81988100
H        1.46402500      -1.43650000      -1.08891700
H       -0.23955400      -2.55746300       0.33836300
H       -1.20052200      -1.58091200       1.53678900
H       -0.83080700      -0.95750700      -1.46610200
H       -2.48549400       0.47927200       0.70808700
H       -2.15015300       1.16886200      -0.88106200
H       -3.12520200      -0.29410900      -0.73453000
H        0.15663400       2.15875900      -2.32093200
H        0.47074000       1.70374600       0.92203600
H        1.03438000       0.54264100       2.13060500
H       -0.68833100       0.81495000       1.91060400
