19
smiles: [C:1]([C:2]([C@@:3]1([H:13])[C-:4]([H:15])[C@:5]1([C+:6]([O:7][H:19])[H:18])[H:16])([H:11])[H:12])([H:8])([H:9])[H:10].[H:14][H:17]
C       -2.31358400      -0.47011900       0.27121000
C       -1.40884300       0.74653200       0.42209600
C       -0.12093600       0.66628100      -0.36777600
C        1.11759500       1.29976900      -0.09531900
C        1.14440100      -0.26702400       0.03316400
C        1.16429200      -0.70929900       1.32227800
O        1.90968400      -1.71597900       1.78731900
H       -2.53993800      -0.66204700      -0.78031100
H       -3.26188900      -0.32829800       0.79236400
H       -1.83884300      -1.36653400       0.67560400
H       -1.19272100       0.94084200       1.47566600
H       -1.93064400       1.63854600       0.05983000
H       -0.28326700       0.36447200      -1.40535700
H        1.97276900       0.85057700      -2.47690200
H        1.17625400       1.81526900       0.86851200
H        1.60433200      -0.86259100      -0.75073600
H        1.98391600       0.46799600      -3.11557500
H        0.60723100      -0.21723300       2.10861800
H        2.43034600      -2.09578100       1.07258800
