12
Extracted from Q-Chem output
O       1.868954     -0.567821     -0.776030
C       1.477230     -1.179291      0.301348
C       0.392819     -0.423041      1.054491
C      -0.569769      0.516704      0.367502
O      -0.112428      1.208631     -0.804073
C      -1.153975      0.240104     -0.940820
H       1.361485      0.254099     -0.971967
H      -0.872790     -0.664766     -1.471393
H      -0.178967     -1.151456      1.633899
H       0.977912      0.128997      1.804761
H      -1.145396      1.157286      1.032139
H      -2.120910      0.656572     -1.200442
