12
Extracted from Q-Chem output
O       1.681681     -0.628825     -0.939168
C       0.604519     -1.084661     -0.304799
C       0.284759     -0.357410      1.006049
C      -0.718787      0.648508      0.514378
O      -0.200557      1.392584     -0.599247
C      -0.954737      0.252701     -0.862390
H       1.886664      0.284092     -0.672377
H      -0.377350     -1.095222     -1.002073
H      -0.148268     -1.040043      1.738943
H       1.176772      0.097004      1.446035
H      -1.398464      1.204147      1.150655
H      -1.841958      0.345329     -1.480397
