11
Extracted from Q-Chem output
O       2.691118     -0.572449     -0.006980
C       1.554616     -0.291884     -0.256931
N       0.514477     -0.619625      0.599340
C      -0.828556     -0.259625      0.550214
C      -1.356810      0.843429      0.025597
O       1.205154      0.321281     -1.394202
H       0.806281     -1.241688      1.333134
H       0.243857      0.352344     -1.483745
H      -1.478735     -0.998713      1.006847
H      -0.767359      1.663360     -0.365476
H      -2.430388      0.963249      0.027658
