11
Extracted from Q-Chem output
O       2.724579     -0.371520     -0.107431
C       1.581881      0.007539     -0.246966
N       0.602206     -0.554344      0.722227
C      -0.711885     -0.382182      0.363886
C      -1.103397      0.896062     -0.100128
O       1.029376      0.773160     -1.078082
H       0.872185     -1.453900      1.085682
H      -0.826999     -0.515970     -0.810131
H      -1.472910     -1.044048      0.773024
H      -0.492900      1.781019     -0.033317
H      -2.090888      0.976649     -0.542776
