15
smiles: [C:1](=[C:2]([C:3]([C:4]([O:5][H:15])([H:13])[H:14])([H:11])[H:12])[H:10])([H:6])[H:7].[H:8][H:9]
C       -2.10222300      -0.24862600       0.38134000
C       -0.91050700      -0.46151400       0.91736100
C        0.30472100      -0.90051700       0.16083000
C        1.41411000       0.13559000       0.21370400
O        2.54413700      -0.39925100      -0.44907300
H       -2.27907800      -0.39475900      -0.67943700
H       -2.94553900       0.07135900       0.98123000
H       -1.00099900       2.12776100      -2.24502500
H       -1.05467300       1.77585000      -1.59105800
H       -0.77941300      -0.30368000       1.98643100
H        0.05333500      -1.10265600      -0.88287900
H        0.69437800      -1.83071100       0.58654000
H        1.07322100       1.06084500      -0.26831000
H        1.65035100       0.37238600       1.26027900
H        3.24290400       0.25567600      -0.44940100
