13
Extracted from Q-Chem output
C      -1.632308      0.120050      0.095193
C      -0.589620     -0.581207     -0.736284
O      -0.853914     -1.534133     -1.425079
C       0.834788     -0.106175     -0.705660
O       1.130393      1.211944     -0.213941
C       1.575715      0.135009      0.546153
O       1.069315     -0.021009      1.808321
H      -1.687977     -0.374286      1.070138
H      -1.404123      1.175412      0.241360
H      -2.602237      0.004737     -0.384002
H       1.392013     -0.404253     -1.589317
H       0.210953      0.407877      1.861650
H       2.647832     -0.037942      0.555229
