14
Extracted from Q-Chem output
O       2.943263     -0.713183      1.321512
C       2.159302     -0.309462      0.213878
C       1.090748      0.683604      0.585883
C      -0.187538      0.470108      0.447970
C      -1.445431      0.254288      0.289496
C      -2.661831      0.215727     -0.499475
N      -2.612862     -0.220510      0.915395
H       3.394820      0.054015      1.677960
H       2.796541      0.116806     -0.572542
H       1.701712     -1.214987     -0.182851
H       1.428289      1.636180      0.992508
H      -2.738955     -0.538339     -1.276293
H      -3.230902      1.122385     -0.668216
H      -2.614652     -1.229537      1.017046
