13
Extracted from Q-Chem output
C       1.423463      0.234142      0.251585
C       0.101715     -0.414076      0.469684
O       0.123264     -1.202330      1.559794
C      -1.058879     -0.292386     -0.273148
C      -1.371670      1.199949     -0.646840
N      -0.964268      0.290839     -1.620344
H       1.414392      0.925939     -0.587301
H       2.179261     -0.535202      0.071070
H       1.723830      0.776857      1.150558
H      -1.894911     -0.953639     -0.076087
H      -0.609529      1.945393     -0.367517
H      -0.734248     -1.620939      1.682830
H      -0.002052      0.350246     -1.965756
