10
Extracted from Q-Chem output
O      -1.980623     -0.743939     -0.310393
C      -1.293917      0.458542     -0.491746
C       0.140536      0.362014     -0.885664
O       0.603329     -0.916494     -0.850597
C       1.473292     -0.141978     -0.083929
C       2.341176     -0.025772      0.759214
H      -1.345294     -1.429081     -0.079396
H      -1.296644      1.089494      0.412425
H      -1.799466      1.044313     -1.266888
H       3.111549      0.241516      1.442535
