15
Extracted from Q-Chem output
C       2.321201     -0.486027      0.156910
C       0.928524      0.011778     -0.072036
C      -0.216410     -0.720824     -0.412008
C      -1.317861      0.062874     -0.081081
N      -2.654794     -0.236583     -0.315717
C      -0.821112      1.265450      0.432583
N       0.522838      1.264933      0.500414
H       2.382702     -1.007653      1.114376
H       2.618178     -1.180501     -0.629502
H       3.029191      0.342226      0.180478
H      -0.228083     -1.709234     -0.848267
H      -3.303046      0.272021      0.261758
H      -2.867372     -1.220015     -0.329289
H      -1.381546      2.153497      0.689835
H       1.002378      1.152668     -0.673701
