10
smiles: [C:5](=[O:6])=[N:7][H:10].[N:1]([C:2]1=[N:3][O:4]1)([H:8])[H:9]
N       -1.56705500      -0.53377200      -0.16113900
C       -1.05874800      -0.91139600       1.00554300
N       -1.19579300      -1.72329700       1.96365900
O       -0.05568800      -0.46176500       1.68244600
C        2.04950900       1.42567200      -1.12556600
O        2.77581100       2.13296200      -1.68906500
N        1.20927900       0.70047200      -0.64983800
H       -1.08970000       0.16988800      -0.69345100
H       -2.31992600      -1.04777100      -0.57819800
H        1.26167600       0.25548200       0.24764700
