10
Extracted from Q-Chem output
N      -1.696584     -0.156930     -0.125193
C      -0.495759     -0.482953      0.392422
N      -0.046525     -1.202368      1.325562
O       0.664636     -1.180263     -0.083740
C       1.611510      0.301510     -0.214373
O       2.738607      0.138589     -0.475105
N       0.590245      1.034960      0.012567
H      -1.686629      0.411755     -0.952864
H      -2.399117     -0.875038     -0.072773
H       0.728983      2.017211      0.195537
