19
smiles: [C:1](=[C:2]([O:3][H:12])[H:11])([H:9])[H:10].[C:4](\[C:5]([H:8])([H:14])[H:15])(=[C:6](\[C:7]([H:17])([H:18])[H:19])[H:16])[H:13]
C        3.06898500      -1.17154100       0.71422700
C        1.87725900      -0.61443200       0.58123500
O        1.38719700       0.28266300       1.47729900
C       -1.19263200       1.37507300      -0.20331700
C       -0.57457400       1.34163200      -1.56631200
C       -1.71816500       0.36108600       0.47479100
C       -1.82325400      -1.06954900       0.04680300
H        0.46468400       1.67855500      -1.52529100
H        3.41318400      -1.87995400      -0.02465200
H        3.71217400      -0.93374900       1.55145600
H        1.22552400      -0.84804200      -0.25673300
H        0.51526100       0.56931700       1.20627200
H       -1.20377100       2.35110600       0.27520200
H       -0.58602300       0.34851500      -2.01336800
H       -1.10020100       2.02023400      -2.24319600
H       -2.12071200       0.57888900       1.46090400
H       -1.44404200      -1.23973600      -0.96001000
H       -2.86354600      -1.40404900       0.07412200
H       -1.26499600      -1.71670900       0.72859700
