16
Extracted from Q-Chem output
O      -1.845393     -1.013343      1.437075
C      -1.207703     -0.798859     -0.236345
C      -0.889692      0.665350     -0.485882
C       0.573629      0.309927     -0.186007
C       1.790283      0.826770     -0.828512
N       1.473504      1.155853      0.570165
C       0.152143     -1.106107      0.109435
H      -2.149820     -0.192592      1.843389
H      -1.966738     -1.382890     -0.741458
H      -1.353264      1.399918      0.172919
H      -1.077308      0.947356     -1.523560
H       1.744443      1.665345     -1.515293
H       2.588978      0.119339     -1.027045
H       2.027509      0.590958      1.203396
H       0.688228     -2.022962     -0.105694
H      -0.661261     -1.097778      1.353487
