14
Extracted from Q-Chem output
O      -1.830250      0.462155      0.678536
C      -0.937982      0.204733     -0.391772
C       0.259772      1.173201     -0.371756
C       1.317960      0.388006      0.358150
C       1.013598     -0.902994      0.414217
C      -0.298667     -1.191250     -0.267425
H      -1.339671      0.378012      1.500778
H      -1.541978      0.306703     -1.292973
H      -0.012785      2.114438      0.110320
H       0.593145      1.416600     -1.386511
H       2.224322      0.830989      0.752027
H       1.634577     -1.670191      0.859972
H      -0.130410     -1.642500     -1.251457
H      -0.951630     -1.867903      0.287893
