14
Extracted from Q-Chem output
O      -1.794250      0.214034      0.571518
C      -0.961552      0.104294     -0.427606
C       0.333308      0.912456     -0.425860
C       1.386713      0.239302      0.155304
C       1.004753     -1.064020      0.411041
C      -0.223404     -1.388946     -0.260659
H      -1.156479      1.714842      1.067032
H      -1.420202      0.180650     -1.437121
H      -0.597430      2.270031      1.031148
H       0.446467      1.815272     -1.017538
H       2.349287      0.672797      0.390896
H       1.532922     -1.733614      1.081062
H      -0.064941     -1.662883     -1.305587
H      -0.868686     -2.117063      0.226136
