12
Extracted from Q-Chem output
O       1.358619      1.502129     -0.048494
C       1.418853      0.181117     -0.510143
O       1.046352     -0.770209      0.436047
C      -0.328949     -0.981807      0.640330
C      -1.377169     -0.527245     -0.304860
C      -1.304691      0.114091      0.821344
H       2.464652     -0.018276     -0.736899
H      -0.424532     -1.913056      1.190648
H       0.815755      0.063974     -1.421631
H      -1.866964     -0.645740     -1.257274
H       0.448847      1.804078     -0.092113
H      -1.685143      0.890573      1.464418
