18
Extracted from Q-Chem output
C      -0.610532      1.358241     -0.272141
C      -1.346893     -0.969890     -0.126901
N      -0.330981      0.051694      0.351118
C      -0.441634      0.185451      1.820538
C       0.982411     -0.523623     -0.025592
O       1.663179     -1.044076      0.813455
C       1.399715     -0.429270     -1.469068
H      -1.628867      1.624432      0.003682
H      -0.560436      1.272164     -1.352796
H       0.105665      2.102273      0.079938
H      -1.276305     -1.009826     -1.216051
H      -1.041727     -1.926170      0.304622
H      -0.276487     -0.784873      2.275162
H       0.304277      0.891982      2.185103
H      -1.453953      0.521046      2.026043
H       1.914095     -1.353727     -1.722067
H       2.119987      0.387351     -1.562996
H       0.584733     -0.272371     -2.167491
