14
smiles: [C:4]1([H:7])([H:12])[C:5]([H:13])([H:14])[O:6]1.[O:1]=[C:2]([C:3]([H:9])([H:10])[H:11])[H:8]
O        2.09723200       0.65882000      -0.24774400
C        2.32289200      -0.48591900       0.03200900
C        1.27311700      -1.53886200       0.22124600
C       -1.33245200       1.25470600      -0.83582700
C       -2.09311700       0.79568400       0.32065600
O       -2.25270000       2.10891000      -0.18221100
H       -0.28616600       1.52093300      -0.71678500
H        3.37033800      -0.83031500       0.16782200
H        1.36712500      -1.97362200       1.21975500
H        1.44065800      -2.34829700      -0.49423600
H        0.27781300      -1.11988100       0.08627100
H       -1.62453500       0.93253200      -1.83111000
H       -1.60508500       0.72602900       1.28850500
H       -2.94291500       0.13519600       0.17487500
