17
Extracted from Q-Chem output
C      -2.003662     -0.479822      1.061106
C      -1.695630      0.849088      0.372077
C      -0.721714     -0.233477      0.399652
C       0.671953     -0.360657      0.609459
C       1.276886     -0.348070     -0.822894
C       2.277073      0.682032     -0.340154
O       1.430952      0.862303      0.808077
H      -2.007630     -0.513980      2.146927
H      -2.744256     -1.117558      0.593012
H      -2.242267      1.059326     -0.540557
H      -1.486065      1.724036      0.979659
H      -0.526925     -1.629676     -0.844802
H       1.000731     -1.165188      1.270746
H       0.210325     -1.827300     -1.137238
H       0.605806     -0.031126     -1.617099
H       3.261271      0.291808     -0.060176
H       2.384166      1.609901     -0.905086
