19
smiles: [C:1]([C:2](=[O:3])[H:12])([H:8])([H:9])[H:10].[C:4](=[C:5]([H:14])[H:15])([C:6]([C:7]([H:17])([H:18])[H:19])([H:11])[H:16])[H:13]
C        2.38654000       0.35620100       0.29129300
C        2.09621800       1.77994400       0.65902400
O        1.00229500       2.21498700       0.89070500
C       -1.14245300      -1.59967400       0.24453000
C       -1.10536200      -0.94713200       1.39652200
C       -1.36972400      -1.00348700      -1.11359700
C       -1.57624300       0.50256300      -1.14604900
H        1.46982900      -0.22951400       0.26255600
H        3.08422200      -0.07092000       1.01646200
H        2.88368700       0.32728200      -0.68185800
H       -0.52042900      -1.27390100      -1.75125400
H        2.98375800       2.44609100       0.70979600
H       -0.99603300      -2.67762000       0.25550800
H       -1.24308000       0.12640100       1.45859100
H       -0.93523100      -1.46981000       2.32975600
H       -2.23382500      -1.50415600      -1.56491100
H       -1.73319600       0.84653400      -2.16934700
H       -2.44833900       0.79749500      -0.55848500
H       -0.70866300       1.03118800      -0.74564000
