12
Extracted from Q-Chem output
O       2.523736      0.033524     -1.393633
C       2.205981      0.342698     -0.273032
C       0.826398      0.287921      0.255608
C      -0.191362     -0.083312     -0.514468
C      -1.618343     -0.174385     -0.084459
O      -1.849092      0.087669      1.276515
H       2.972624      0.698172      0.443578
H       0.671010      0.582839      1.287760
H      -1.452892     -0.613823      1.797476
H       0.016854     -0.345908     -1.549444
H      -2.010654     -1.158084     -0.378475
H      -2.200683      0.562849     -0.645459
