12
Extracted from Q-Chem output
N       1.550266      2.136412     -1.366733
C       1.247211      1.093222     -1.000274
C       0.831346     -0.240408     -0.536872
O       1.218699     -0.559047      0.790885
C      -0.056884     -0.876501      1.355249
C      -0.929604      0.302666      0.986892
C      -0.665349     -0.404471     -0.295096
H       1.245210     -0.988829     -1.217832
H      -0.574557     -1.568928      0.295209
H      -1.950393      0.225877      1.344191
H      -0.485637      1.283869      1.112192
H      -1.415761     -0.590046     -1.055094
