17
Extracted from Q-Chem output
C       1.203806     -0.637614      1.062846
C       1.261212      0.569665      0.203383
C       1.161671     -0.787920     -0.423835
C      -0.249933     -0.471519     -0.914928
C      -1.313743     -1.138688     -0.229012
C      -1.267463      1.459025      0.359362
C      -0.112895      1.055518     -0.373159
H       2.143881     -0.892956      1.535194
H       0.320036     -0.848547      1.654644
H       2.099367      1.252918      0.227855
H       1.902909     -1.342534     -0.981581
H      -0.326875     -0.388159     -2.002965
H      -1.132278     -2.082132      0.271071
H      -2.347907     -0.877344     -0.410209
H      -2.143320      0.840114      0.426335
H      -1.357146      2.474469      0.734159
H       0.183119      1.830813     -1.100305
