13
Extracted from Q-Chem output
C       1.344792     -0.418682     -0.143954
C       1.666476      0.926327      0.332946
C      -1.023504      0.842611     -0.086311
C      -1.265058     -0.550879     -0.534564
C      -0.098172     -0.277717      0.379512
H       1.356698     -0.532673     -1.228974
H       1.802888     -1.286465      0.337891
H       1.813701      0.835827      1.427610
H      -0.629695      1.548998     -0.801193
H      -1.680415      1.270716      0.658291
H      -2.091188     -1.097847     -0.099405
H      -1.041924     -0.805975     -1.561839
H      -0.220761     -0.583328      1.409610
