13
Extracted from Q-Chem output
C       1.388031     -0.537311     -0.156802
C       1.260746      0.905894      0.180861
C      -0.881354      0.893561     -0.040086
C      -1.243077     -0.462137     -0.527084
C      -0.021227     -0.484735      0.322463
H       1.522348     -0.774770     -1.211140
H       1.996244     -1.174229      0.482557
H       1.373612      1.004383      1.271553
H      -0.639688      1.637349     -0.775238
H      -1.400102      1.270939      0.830271
H      -2.109681     -0.945430     -0.094604
H      -1.109479     -0.649201     -1.585541
H      -0.172571     -0.764900      1.354807
