8
Extracted from Q-Chem output
O      -3.064793     -0.292241     -0.436235
C      -2.302908      0.228997      0.331758
C      -0.864119      0.066467      0.269670
C       0.334804     -0.040409      0.257298
C       1.701354     -0.170919      0.232092
C       2.895203     -0.284484      0.211272
H      -2.654704      0.879359      1.151693
H       3.955163     -0.386768      0.191215
