15
Extracted from Q-Chem output
C      -1.640402      0.599577     -0.527701
C      -0.341080     -0.020499     -0.410008
C      -0.161993     -1.475492     -0.301663
C       0.801229      0.940839     -0.496591
O       0.550039      2.163864     -0.802590
C       1.402783      0.678905      0.876335
C       1.866180      0.556927      1.975820
H      -2.496274     -0.039636     -0.328308
H      -1.672321      1.023334     -1.543554
H      -1.601345      1.527665      0.063881
H       1.497065      0.381456     -1.194270
H      -0.738035     -1.854913      0.546742
H      -0.586684     -1.947833     -1.194582
H       0.884312     -1.757655     -0.197373
H       2.299347      0.476302      2.944987
