14
smiles: [C:1]([N:2]=[N+:7]=[N-:6])([H:8])([H:9])[H:10].[C:3](#[C:4][C:5]([H:12])([H:13])[H:14])[H:11]
C        2.30148400      -0.14666000       0.52577400
N        2.01038200      -0.52490100      -0.85836000
C       -0.66383800       1.67840500      -0.58114200
C       -1.47656000       0.89785700      -0.17741100
C       -2.46579300      -0.05066300       0.31725000
N        0.19209100      -1.94991700      -1.24349800
N        1.05164500      -1.26927200      -1.00195800
H        1.47020600       0.40257500       0.97593200
H        3.17446100       0.49931000       0.49766200
H        2.53052100      -1.01974300       1.14278800
H        0.05902800       2.37346600      -0.93702700
H       -2.42222800      -0.98346000      -0.24640300
H       -2.28738500      -0.27816200       1.36905000
H       -3.47227500       0.35910900       0.22237100
