14
Extracted from Q-Chem output
C       2.646451     -0.037415      0.226268
N       1.351015     -0.307703     -0.372785
C      -0.302673      1.035931     -0.462480
C      -1.288892      0.351762     -0.204188
C      -2.702010      0.015279      0.012540
N      -0.416833     -1.573024      0.200382
N       0.683972     -1.275645      0.044500
H       2.588184      0.066268      1.313195
H       2.997053      0.901144     -0.198984
H       3.370628     -0.814037     -0.026307
H       0.280247      1.881976     -0.746755
H      -3.013504     -0.777986     -0.667733
H      -2.852829     -0.351438      1.028387
H      -3.340809      0.884886     -0.146040
