13
Extracted from Q-Chem output
C      -1.353331     -0.024437      0.454696
C       0.050860     -0.557721      0.203981
C       0.414957     -0.561322     -1.274665
N       1.026830      0.195673      0.967964
C       1.444718      1.314645      1.025085
O       1.925189      2.369720      1.168519
H      -1.585123     -0.026613      1.520001
H      -2.089139     -0.644166     -0.060818
H      -1.447368      0.998713      0.082885
H       0.107559     -1.581422      0.580374
H      -0.276563     -1.194476     -1.833338
H       0.361001      0.449542     -1.685977
H       1.426356     -0.939843     -1.424301
