10
Extracted from Q-Chem output
O       2.190843      0.047095     -0.473993
C       1.014355      0.099972     -0.246245
N       0.136619     -1.118565     -0.088011
C      -1.323516     -0.712603      0.198281
C      -1.181897      0.618338      0.182788
N       0.151309      1.095531     -0.070484
H       0.490740     -1.700059      0.668502
H       0.181121     -1.685083     -0.932386
H      -1.951787      1.357786      0.340230
H       0.444067      2.054682     -0.119643
