10
Extracted from Q-Chem output
O       2.291825      0.155712     -0.256126
C       1.094046      0.092058     -0.141002
N       0.308402     -1.082195      0.010098
C      -1.186246     -0.758659      0.269339
C      -1.129047      0.580838      0.089478
N       0.157713      1.079258     -0.098590
H       0.727686     -1.915315      0.394895
H      -0.562781     -1.400374     -0.728194
H      -1.968277      1.258902      0.087376
H       0.418536      2.046867     -0.168237
