13
smiles: [C:1]([O:3][H:11])([H:7])([H:8])[H:9].[C:2]([C:4]([C:5]#[N:6])([H:12])[H:13])[H:10]
C       -1.79369700      -0.47901600       0.49625500
C        0.13430300       0.31576100      -0.70364000
O       -1.19946700       0.61272500      -0.17278400
C        1.25326000       0.00240400       0.18935000
C        2.63840400       0.09664300      -0.27887500
N        3.70948900       0.16266000      -0.68353600
H       -2.84947500      -0.29763600       0.72797500
H       -1.71389700      -1.41017300      -0.07628800
H       -1.25650600      -0.60824900       1.43515800
H        0.53801600       0.92468700      -1.53332200
H       -1.66127800       0.75541400      -0.99939600
H        1.09789100      -0.87769300       0.81566300
H        1.03718700       0.85917700       0.87163600
