14
smiles: [C:1]([C:2](=[O:3])[H:10])([H:7])([H:8])[H:9].[C:4]([C:5]#[C:6][H:14])([H:11])([H:12])[H:13]
C        1.88738900      -0.80795300      -0.00978800
C        1.19860400      -0.26149500      -1.22356900
O        0.43356600      -0.88039200      -1.91009400
C       -2.14386400      -0.19139500       0.29725800
C       -1.31271800       0.95033100       0.65641800
C       -0.62935800       1.88885200       0.94783500
H        2.96999100      -0.73939600      -0.14613200
H        1.63777700      -0.19124200       0.85759200
H        1.59713700      -1.84161600       0.16796200
H        1.44040800       0.79431100      -1.47037400
H       -1.71092300      -0.73092700      -0.54601500
H       -2.23349600      -0.88234600       1.13643900
H       -3.14576500       0.13524500       0.01559600
H       -0.01995300       2.72195000       1.20646700
