14
Extracted from Q-Chem output
C       1.893482     -0.486945      0.239196
C       0.839906      0.031250     -0.724285
O       0.054735     -0.790010     -1.266398
C      -1.978322     -0.445742     -0.217480
C      -1.283268      0.572147      0.393715
C      -0.203089      1.202665      0.529141
H       2.617302     -1.074572     -0.331474
H       2.424497      0.319120      0.748834
H       1.433418     -1.145044      0.977530
H       1.161112      0.904428     -1.320487
H      -2.527333     -0.249845     -1.129912
H      -2.098050     -1.396939      0.286588
H      -2.510293      0.498308      0.732883
H       0.170023      2.050050      1.075431
