15
Extracted from Q-Chem output
C      -2.476135     -0.693808     -0.513004
N      -1.354280      0.154686     -0.190260
C      -0.316869     -0.372273      0.273824
C       0.920284      0.416195      0.630315
C       2.125716     -0.058927     -0.193921
C       0.722999      1.859691      0.478558
N       0.634738      2.997377      0.370020
H      -2.722118     -0.565019     -1.568314
H      -3.343948     -0.364325      0.060708
H      -2.294172     -1.758018     -0.312306
H      -0.225330     -1.456236      0.441178
H       1.958038      0.128681     -1.254594
H       2.276996     -1.129649     -0.048666
H       3.031613      0.462196      0.112752
H       1.131246      0.234782      1.690308
