15
Extracted from Q-Chem output
C      -2.601342     -0.628329     -0.262575
N      -1.429035      0.156671      0.021310
C      -0.287117     -0.395190     -0.086099
C       0.936502      0.351688      0.004512
C       2.273895     -0.316432      0.043747
C       0.755081      1.747641      0.223337
N       0.064539      2.734292      0.116205
H      -3.153440     -0.148694     -1.074111
H      -3.257043     -0.623565      0.611098
H      -2.384636     -1.667125     -0.544844
H      -0.177600     -1.464516     -0.314281
H       3.082893      0.413807      0.030818
H       2.381846     -0.941236     -0.846896
H       2.411137     -0.968317      0.911020
H       1.414463      1.707455      1.157714
