18
Extracted from Q-Chem output
C      -1.946125      0.443521      1.293442
C      -1.183128     -0.557505      0.470569
C       0.187442     -0.880339      0.771797
C       1.079406     -0.426400     -0.633043
C       2.340636      0.182618     -0.583579
C       0.234332      0.658898     -1.231828
H      -1.315805      1.299404      1.548637
H      -2.287822      0.004873      2.237441
H      -2.828078      0.818428      0.770141
H      -1.781031     -1.342068      0.011586
H      -0.868661      0.218330     -0.751494
H       0.412893     -1.937018      0.886005
H       0.604542     -0.312659      1.602310
H       1.070841     -1.323660     -1.252312
H       2.460125      1.122496     -0.057446
H       3.241442     -0.279114     -0.971127
H       0.256213      0.761160     -2.315295
H       0.314026      1.626079     -0.734484
