13
smiles: [C:2](=[C:3]1[C:4]([H:10])([H:11])[C:5]1([H:12])[H:13])([H:7])[H:8].[O:1]([H:6])[H:9]
O        1.34637500      -1.22956200      -1.69627300
C        0.81024600       1.42569900       0.47467200
C       -0.18649600       0.57152800       0.44072000
C       -1.43695900       0.13881300      -0.17921000
C       -0.82087000      -0.62168900       0.99652900
H        2.07353700      -1.73798600      -1.33487000
H        0.86561000       2.25385000      -0.22238500
H        1.60760900       1.32659700       1.20212500
H        1.30389100      -0.43321100      -1.16543300
H       -2.33570100       0.71482000       0.00877600
H       -1.39714100      -0.32784800      -1.15666200
H       -1.31402500      -0.54694900       1.95886400
H       -0.37450200      -1.58840800       0.79370400
