13
Extracted from Q-Chem output
O       2.180476     -0.756781      0.061000
C       1.246806      0.247797      0.405546
C       0.044005      0.253850     -0.494502
C      -1.262089      0.780314      0.011564
C      -1.088337     -0.692805     -0.210625
H       1.707563     -1.589858      0.002054
H       1.787220      1.193768      0.332599
H       0.919194      0.136961      1.449814
H       0.268781      0.433813     -1.540095
H      -1.301141      1.132796      1.035022
H      -1.890282      1.333704     -0.673221
H      -1.013460     -1.323074      0.668218
H      -1.598735     -1.150485     -1.047375
