17
Extracted from Q-Chem output
C       2.255496      0.048413     -0.646622
C       0.819771     -0.404294     -0.680209
C       0.392592      0.072760      1.740605
O      -0.864521     -0.071349      1.395361
C      -1.099538     -0.086543      0.039817
C      -2.532801      0.095935     -0.327009
O      -0.181701      0.639011     -0.686618
H       2.522254      0.529629     -1.594245
H       2.896696     -0.826646     -0.528769
H       2.477422      0.744267      0.160036
H       0.674845     -0.986331     -1.597143
H       0.939273      0.909903      1.333844
H       0.611898     -0.297417      2.733959
H      -0.198108     -1.133909     -0.100817
H      -2.815655      1.150961     -0.268094
H      -2.689074     -0.240083     -1.351328
H      -3.168871     -0.481332      0.341979
