15
Extracted from Q-Chem output
O      -1.229982      1.115830     -0.280241
C      -0.859421      0.064833      0.497568
C      -0.142302     -1.060858     -0.275474
C       1.418067     -0.354095     -0.687139
C       1.385928      0.420630     -1.953966
O       1.421096      1.026125     -0.653377
C      -0.887625      0.098042      1.842930
H      -0.396258      1.546247     -0.542121
H      -1.431673     -1.013185      0.008288
H      -0.469783     -1.282579     -1.292094
H       0.092023     -1.921585      0.336682
H       2.296966      0.522769     -2.533616
H       0.458151      0.586794     -2.496202
H      -1.207825      0.999423      2.343540
H      -0.618243     -0.768090      2.429638
