12
Extracted from Q-Chem output
C       2.513158      1.369516     -0.364167
C       1.660378      0.556759     -0.573244
C       0.643381     -0.435283     -0.821016
N       0.336157     -1.471914      0.207845
C      -0.544911     -0.445841      0.031020
C      -1.772600      0.036862      0.361017
C      -2.897466      0.161996      1.011752
H       3.267109      2.098259     -0.178627
H       0.608404     -0.829773     -1.830961
H       0.876981     -1.474410      1.066821
H      -1.851367     -0.308084     -0.784156
H      -2.852644      0.700909      1.960601
