12
Extracted from Q-Chem output
N       0.234578      0.206735      1.839993
C       0.153576     -0.719271      0.799203
C       0.444529     -0.134474     -0.539227
C      -0.526705     -1.299845     -0.919558
N      -0.570572     -1.737903      0.515131
C       0.171694      1.310428      1.174097
N       0.083528      1.231197     -0.207231
H       1.444485     -0.220415     -0.967447
H      -1.509954     -0.959217     -1.240716
H      -0.130738     -2.037480     -1.621605
H       0.149791      2.284167      1.650447
H       0.366933      2.016695     -0.767216
