12
Extracted from Q-Chem output
N       1.026729      0.297142      1.776854
C       0.701183     -0.491797      0.837760
C       0.654992     -0.190185     -0.742832
C      -0.614049     -1.007707     -0.739723
N      -0.755248     -0.746860      0.726149
C      -0.362727      0.700882      0.900107
N       0.073471      1.148615     -0.429938
H       1.455768     -0.221770     -1.471276
H      -1.430954     -0.616859     -1.341660
H      -0.479168     -2.076894     -0.884367
H      -0.946830      1.333973      1.550460
H       0.815104      1.827835     -0.291405
