10
Extracted from Q-Chem output
O       0.493613     -0.118858      1.659256
C       0.437027      0.479196     -1.700746
N      -0.256729     -0.816566     -1.561845
C      -0.645966     -0.942734     -0.361399
C      -0.251826      0.208011      0.529106
N       0.453302      0.981308     -0.480907
H       1.240240     -0.664130      1.394468
H      -1.194170     -1.806794      0.004540
H      -1.126772      0.759169      0.884806
H       0.842781      1.888439     -0.284721
