10
Extracted from Q-Chem output
O       1.138555     -0.072244      0.849361
C       1.072987      0.122469     -0.882340
N       0.177054     -1.069001     -1.122412
C      -0.801937     -0.906122     -0.340814
C      -0.635576      0.425553      0.320251
N       0.013539      1.170884     -0.566586
H       1.438944     -0.963750      1.069902
H      -1.618390     -1.601781     -0.173669
H      -1.184725      0.809630      1.174789
H       0.391049      2.051405     -0.245926
