13
Extracted from Q-Chem output
O       1.163400      0.462435     -1.775360
C       0.752338      0.349481     -0.649585
C       0.914046     -0.896477      0.186273
C      -0.376336     -1.356839      0.858470
C      -0.870790      1.967970     -0.476524
N       0.146087      1.428032      0.032716
H       1.321459     -1.666576     -0.468136
H       1.667694     -0.672141      0.946987
H      -1.153148     -1.566009      0.119998
H      -0.202278     -2.271904      1.425091
H      -1.328726      1.609450     -1.403139
H      -1.318328      2.831069      0.012432
H      -0.755749     -0.601483      1.547296
