13
Extracted from Q-Chem output
O       2.370466      0.764029     -0.863647
C       1.255084      0.584786     -0.443381
C       0.735907     -0.891081     -0.182922
C      -0.560131     -0.782814      0.565799
C      -0.973019      0.946299     -0.084695
N       0.324535      1.529073     -0.113542
H       0.607059     -1.357399     -1.160771
H       1.520834     -1.419711      0.352106
H      -1.440797     -1.294150      0.194812
H      -0.488455     -0.918790      1.649506
H      -1.410074      0.577132     -1.018082
H      -1.703669      1.480312      0.520237
H      -0.256564      0.545648      0.829247
