16
smiles: [C:1]([C@:2]12[C:3]([H:11])([H:12])[C@@:4]1([H:13])[C-:5][N:6]([H:15])[C+:7]2)([H:8])([H:9])[H:10].[H:14][H:16]
C        1.05254800      -0.21278900       1.22732000
C        0.24404600       0.14160900       0.01060600
C        0.94350200       0.49268600      -1.28669900
C        0.07989800       1.52402100      -0.57202000
C       -1.22311800       1.58712800      -1.23774200
N       -1.72491500       0.33195200      -1.00066400
C       -0.97347100      -0.60623600      -0.35095500
H        0.47333900      -0.04657600       2.13610000
H        1.95581200       0.39695800       1.28553700
H        1.34364300      -1.26331500       1.19808800
H        2.01767600       0.62882400      -1.23791700
H        0.57702100       0.07725500      -2.21760400
H        0.57115700       2.41445600      -0.20602200
H       -1.38521200      -2.95153700       2.30271200
H       -2.60748900       0.06573000      -1.40942400
H       -1.37321000      -2.59537300       1.64895100
