15
Extracted from Q-Chem output
C      -1.674118     -0.427922     -0.916643
C      -0.781552      0.447492     -0.058630
N      -0.602962      0.017203      1.356754
C       1.680332      0.624430     -0.998127
C       0.706269      0.247862     -0.195282
N       0.731974     -0.461795      1.038576
O       1.701902      0.015767      1.923844
H      -2.711082     -0.369425     -0.577468
H      -1.349993     -1.469945     -0.880359
H      -1.644619     -0.098177     -1.956616
H      -1.091502      1.492665     -0.117642
H      -1.172810     -0.790573      1.588627
H       2.711779      0.397646     -0.763859
H       1.463713      1.184400     -1.897582
H       2.016821     -0.776277      2.365904
