16
Extracted from Q-Chem output
C      -2.170506     -0.305943      0.394410
C      -0.871798     -0.341841     -0.396292
C       0.164809      0.626461      0.176304
C       1.467670      0.605529     -0.559608
C       2.649329      0.397834     -0.001163
O      -0.363727     -1.661834     -0.485191
H      -2.884127     -1.016600     -0.022903
H      -1.992084     -0.575036      1.439586
H      -2.619009      0.689832      0.374050
H      -1.078420     -0.059737     -1.433805
H      -0.261393      1.635254      0.143603
H       0.332358      0.393940      1.235160
H       1.410961      0.770259     -1.633515
H       3.561538      0.395412     -0.584905
H       2.749459      0.223545      1.065754
H       0.062967     -1.885834      0.345275
