16
Extracted from Q-Chem output
C      -1.749772     -0.465148      0.612870
C      -0.816583      0.181986     -0.354703
C       0.018130      1.334814     -0.003556
C       1.376211      0.897164     -0.528878
C       1.727464     -0.414283     -0.072286
O       0.523984     -1.333780     -0.421519
H      -2.130452     -1.426546      0.272125
H      -1.297217     -0.576736      1.598256
H      -2.602889      0.215175      0.729153
H      -1.050251      0.074076     -1.406121
H      -0.314796      2.221534     -0.547730
H      -0.001529      1.548860      1.070271
H       1.560291      1.104125     -1.579624
H       2.606839     -0.836778     -0.556336
H       1.800732     -0.524374      1.017914
H       0.448226     -2.075688      0.200996
