14
Extracted from Q-Chem output
C      -1.335583     -0.443821      0.410048
C      -0.762001      0.520243     -0.677413
C       0.444225      1.375190      0.072424
O       0.822162      0.839222      1.202276
C       1.807435     -1.209314      0.508087
N       1.290655     -1.672993     -0.410526
C      -0.724216     -0.862054     -0.783268
H      -0.634754     -0.182954      1.249084
H      -2.351900     -0.735201      0.648886
H      -1.256663      1.097377     -1.450929
H      -0.013584      2.375536      0.156630
H       1.206348      1.390576     -0.733458
H       2.374345     -0.877797      1.348803
H      -0.886659     -1.608553     -1.539919
