15
Extracted from Q-Chem output
C      -0.233386     -2.103463     -0.040174
C      -0.479329     -0.629683      0.114438
C      -0.888354      2.139022      0.293990
C       0.524950      0.248608      0.214131
O       0.408264      1.592176      0.332928
N       1.869955     -0.089791      0.160507
H       0.137944     -2.571030      0.880028
H       0.493488     -2.316164     -0.830573
H      -1.154213     -2.622335     -0.305759
H      -1.498363     -0.275555      0.143346
H      -1.390696      1.894345     -0.646488
H      -1.495176      1.779111      1.130483
H      -0.766509      3.217274      0.373200
H       2.084684     -1.010472      0.504291
H       2.471230      0.620427      0.544728
