14
Extracted from Q-Chem output
O       0.972179      0.689741      2.091262
C       0.901512     -0.089505      0.942678
C      -0.531926     -0.659625      0.846914
C      -0.536511     -0.284921     -0.583817
C       0.452078      0.933843     -0.413705
C      -0.601194     -1.016704     -1.699272
H       1.900499      0.884689      2.229398
H      -1.231885     -0.043157      1.430452
H      -0.694519     -1.711255      1.078868
H      -0.792163      0.980665     -0.838225
H       1.086527      1.153048     -1.263948
H       0.161642      1.794414      0.188510
H      -0.963518     -2.034418     -1.651225
H      -0.303360     -0.623766     -2.662842
