12
Extracted from Q-Chem output
O       2.189475      0.515310      1.405231
C       1.846933     -0.223438      0.562187
O       1.098119      0.481838     -1.020693
C       0.087354      0.069370     -0.348698
C      -1.248349     -0.467013     -0.688074
C      -1.074475      0.726068      0.279902
H       2.322715     -0.950455     -0.090933
H       0.626847     -0.725905      0.619996
H      -1.593216     -0.273714     -1.696986
H      -1.600527     -1.394094     -0.254882
H      -1.309710      1.719413     -0.080855
H      -1.312828      0.545848      1.320402
