10
Extracted from Q-Chem output
O       1.980050      0.653530      0.076792
C       0.817779      0.147721     -0.054528
C       0.442031      1.443271      0.321607
C      -1.265282     -0.844195     -0.147340
N       0.192134     -0.928080     -0.336579
H       0.359596      1.696312      1.368064
H       0.255427      2.185258     -0.442270
H      -1.513550     -1.373861      0.774904
H      -1.747068     -1.323947     -1.000411
H       0.721548     -1.740346     -0.636408
