13
Extracted from Q-Chem output
N       2.204071     -0.236654      0.188351
C       1.025889      0.171172      0.175215
C      -0.167229     -0.664900      0.512416
C      -1.126504     -0.845528     -0.663123
C      -0.202259      2.272425      0.081579
O       0.795884      1.520391     -0.265643
H       2.851863      0.493581     -0.102482
H       0.237966     -1.623033      0.832768
H      -0.691888     -0.240069      1.371275
H      -1.944984     -1.506161     -0.378133
H      -0.613408     -1.290999     -1.516420
H      -0.851327      1.676717      0.770086
H      -1.561253      0.100090     -0.990895
