13
Extracted from Q-Chem output
N       2.327639     -0.029953      0.543958
C       1.137285      0.160953      0.211174
C       0.005753     -0.812545      0.464777
C      -1.147806     -0.590248     -0.486691
C      -0.628544      1.544874     -0.485697
O       0.701709      1.256849     -0.499647
H       2.911977      0.765083      0.297364
H       0.419893     -1.816970      0.389299
H      -0.322945     -0.675034      1.497691
H      -2.127553     -0.756167     -0.045917
H      -1.045620     -1.150266     -1.418266
H      -0.998849      1.510646      0.555873
H      -1.258619      0.517478     -1.034602
