15
Extracted from Q-Chem output
C      -2.913882     -0.200270      0.238675
C      -1.640687     -0.645827      0.888850
C      -0.394093      0.037409      0.693593
O      -1.054025      0.265254      1.866661
C       0.673324      0.402163      0.074184
C       1.753249      0.752500     -0.568094
C       3.078383      0.056793     -0.464498
H      -3.760622     -0.358519      0.908886
H      -3.086279     -0.777922     -0.671461
H      -2.859084      0.855968     -0.023066
H       1.706621      1.617750     -1.227305
H      -1.598352     -1.683781      1.212097
H       3.844580      0.747482     -0.103648
H       3.026071     -0.792368      0.215228
H       3.403371     -0.299234     -1.445382
