9
Extracted from Q-Chem output
C      -1.346232     -0.222733      0.463833
C      -0.047905     -0.204983     -0.201282
C       0.789995      0.000902     -1.121008
C       2.108515      0.810323     -0.718602
C       1.532885      0.241357      0.346214
H      -1.431045     -1.035100      1.185381
H      -2.133759     -0.321254     -0.283492
H      -1.481155      0.725505      0.990615
H       1.974392     -0.429536      1.072226
