11
Extracted from Q-Chem output
C      -1.073495     -1.203142     -1.163572
C      -1.012888     -0.259582     -0.279706
C      -0.946196      0.693416      0.612181
C       0.329749      1.258769      1.103867
O       0.357156      2.136697      1.931798
C       1.562899      0.711004      0.545113
C       2.585553      0.276403      0.099713
H      -1.118861     -0.970854     -2.221004
H      -1.843728      1.122235      1.043951
H      -1.074437     -2.244558     -0.864052
H       3.499553     -0.105370     -0.291865
