10
Extracted from Q-Chem output
C      -1.716172      0.207845      0.047040
C      -0.185355      0.090287      0.227853
N      -0.072485     -1.162274      0.505838
O       1.796877     -1.224180      0.711700
C       2.443716     -0.238963      0.576434
O       3.297817      0.526212      0.509547
O       0.609522      1.016700      0.112553
H      -1.870071      0.577101     -0.965410
H      -2.253980     -0.728829      0.182752
H      -2.049870      0.936104      0.784036
