12
Extracted from Q-Chem output
N      -1.759093     -0.482013      0.522830
C      -0.629510      0.039099      0.980848
N       0.538617     -0.694857      0.976567
C       1.067419     -0.226348     -0.121501
O       2.180886     -0.697221     -0.666355
C       0.242550      0.781511     -0.741925
N      -0.450905      1.291436      0.421995
H      -1.792955     -1.483513      0.691927
H      -1.110198     -0.229445     -0.710172
H       2.455579     -1.467713     -0.155877
H       0.637023      1.463504     -1.485366
H      -1.351760      1.700346      0.211399
