14
smiles: [C:1]([N:2]([H:10])[H:11])([H:7])([H:8])[H:9].[C:3](=[O:4])=[N:5][C:6]([H:12])([H:13])[H:14]
C       -2.12465400      -0.54459900       0.22923500
N       -1.70442700       0.13566400       1.44638300
C        0.86840400       1.39568400      -0.33506500
O        0.28825700       2.40797900      -0.38599400
N        1.39249200       0.33411400      -0.18558200
C        2.41244400      -0.48792900      -0.77008300
H       -1.54828000      -0.28764900      -0.66974800
H       -3.17356100      -0.31689200       0.03164000
H       -2.05355400      -1.62373500       0.37578700
H       -1.77127300       1.13835400       1.33934500
H       -0.73990800      -0.07566600       1.66156300
H        2.49046100      -1.41255900      -0.20170700
H        2.16633100      -0.73627700      -1.80376700
H        3.37935300       0.01712300      -0.74698100
