14
Extracted from Q-Chem output
C      -2.202546     -0.069062      0.095266
N      -0.937569      0.056322      0.813942
C       0.206126      0.655011     -0.017227
O       0.158712      1.742002     -0.539472
N       1.028100     -0.368533      0.085604
C       2.328978     -0.370823     -0.537461
H      -2.533522      0.906838     -0.264205
H      -2.962611     -0.500494      0.745406
H      -2.052458     -0.726620     -0.760723
H      -1.048737      0.571402      1.680550
H      -0.037406     -0.815479      0.790807
H       3.111588     -0.516700      0.210476
H       2.406139     -1.181695     -1.265684
H       2.508837      0.576264     -1.051948
