13
Extracted from Q-Chem output
C       2.115351     -0.102367     -0.568683
C       0.806187      0.080746     -0.174769
C      -0.099121     -1.026383     -0.295567
N      -1.299910     -0.750469      0.103217
C      -1.387909      0.634216      0.568593
C       0.005124      1.107563      0.358411
H      -1.740367      0.616696      1.610802
H       2.435364     -1.059791     -0.956007
H       2.849577      0.686605     -0.498453
H       0.147750     -2.012784     -0.673114
H      -2.068195     -1.399341      0.094871
H      -2.164933      1.140349     -0.023460
H       0.319243      2.108682      0.601731
