11
Extracted from Q-Chem output
N       2.440011      0.487127     -0.158662
C       1.158322      0.815318     -0.249680
N       0.286297     -1.561773     -0.031895
N      -0.824787     -1.132072      0.116909
C      -1.330709      0.217187      0.565825
O      -2.413743      0.397463     -0.181479
N       0.085878      1.237507     -0.379334
H       2.580153     -0.512965     -0.185996
H       2.959576      0.971631      0.556448
H      -1.660324     -1.757803      0.093502
H      -2.927625      1.102010      0.220368
