12
Extracted from Q-Chem output
O      -1.618173      0.823836     -0.284092
C      -1.126836     -0.403106      0.192293
C       0.379738     -0.507015     -0.005001
O       0.678495     -0.439856     -1.370596
C       1.101308      0.591320      0.741321
O       1.895165      1.309530      0.196961
H      -1.329881      0.907508     -1.197975
H      -1.602309     -1.253023     -0.310721
H      -1.371831     -0.461042      1.255566
H       0.724860     -1.460630      0.428176
H       1.396456      0.201722     -1.464532
H       0.873008      0.690755      1.818600
