10
Extracted from Q-Chem output
C      -0.487763      0.598465      0.110634
C      -0.748536     -0.876638     -0.044969
C       1.816507      0.104421     -0.136965
O       0.910387      0.998881      0.050513
H      -0.838122      0.972998      1.073518
H      -1.827930     -1.031551      0.020930
H      -0.973227      1.180644     -0.673955
H      -0.258674     -1.456050      0.735976
H      -0.393404     -1.249597     -1.004261
H       2.750756      0.710907     -0.134310
