13
Extracted from Q-Chem output
C      -1.735047      0.489666      0.238744
C      -0.564599     -0.481755      0.154304
C       0.616521      0.130756     -0.565431
C       2.769158     -0.796663     -0.015892
O       1.677355     -0.849233     -0.693242
H      -2.582527      0.031892      0.749331
H      -1.464515      1.393110      0.789967
H      -2.072169      0.793571     -0.754864
H      -0.862084     -1.391660     -0.372326
H      -0.249775     -0.783785      1.157090
H       0.354926      0.421839     -1.584428
H       2.715810      0.132825      0.620415
H       1.021102      0.996737     -0.031521
