14
Extracted from Q-Chem output
O      -3.091077     -0.706846     -0.354178
C      -2.689974      0.342083      0.092819
N      -1.475283      0.537610      0.657857
C      -0.463109     -0.497595      0.728030
C       0.604931     -0.324529     -0.321406
C       1.860201     -0.128594     -0.041961
C       3.112122      0.057949      0.254270
H      -3.302076      1.261638      0.089459
H      -1.222191      1.475136      0.916607
H      -0.980846     -1.446044      0.582037
H      -0.012616     -0.502539      1.721354
H       3.789018     -0.779953      0.373849
H       0.287178     -0.365965     -1.359468
H       3.514936      1.056042      0.382275
