13
Extracted from Q-Chem output
N      -1.716631      0.696994      0.521106
C      -0.423157      0.436074      0.220826
C       0.100145     -0.991116      0.292168
O      -0.694526     -1.922948     -0.389371
N       1.472960     -0.935702     -0.171115
C       1.731933      0.311774     -0.330493
C       0.622152      1.226559     -0.099580
H      -2.086950      1.610300      0.330174
H      -2.361807     -0.068042      0.413917
H      -0.325943     -2.013478     -1.271971
H       0.112897     -1.287683      1.348482
H       2.724340      0.630230     -0.638750
H       0.644097      2.299490     -0.218122
