14
Extracted from Q-Chem output
C       2.253082      0.017091     -0.045904
C       1.026246      0.206092      0.740564
C      -1.767384     -1.193439     -0.129231
C      -2.042982     -0.028506      0.447080
O      -1.254391      1.057671      0.559891
C       0.030204      0.957561     -0.010944
H       2.137335     -1.040151     -0.341414
H       3.154307      0.028350      0.567789
H       2.385972      0.608487     -0.963526
H      -2.528765     -1.959680     -0.133273
H      -0.817547     -1.436712     -0.583151
H      -3.006498      0.161307      0.905794
H       0.456157      1.976099      0.030414
H      -0.044145      0.700578     -1.081831
