12
Extracted from Q-Chem output
C      -1.523806     -0.420535     -0.259687
C      -0.571003     -0.085912      0.718797
O       0.857697     -1.100869     -0.083435
C       1.467070      0.148519     -0.325538
C       0.452115      1.002767      0.404209
O       0.395647      2.150870      0.714166
H      -1.692945      0.285506     -1.066085
H      -0.380994     -1.077955     -0.584557
H      -2.365279     -1.041621      0.017731
H      -0.622359     -0.477009      1.730182
H       1.575095      0.398140     -1.386981
H       2.449982      0.233035      0.148028
