10
Extracted from Q-Chem output
O      -1.895685      0.514175      0.372463
C      -0.583401      0.142603      0.582823
C       0.533351      1.080880      0.347227
C       1.471289      0.225074     -0.227766
N       1.014537     -1.027325     -0.496052
N      -0.206703     -1.086871     -0.137907
H      -1.877683      1.424537      0.065131
H      -0.402667     -0.125164      1.646241
H       2.484526      0.446204     -0.529590
H      -0.688970     -1.972766     -0.156961
