10
Extracted from Q-Chem output
O      -1.941492      0.448456      0.384076
C      -0.604612      0.168128      0.412037
C       0.506065      1.097011      0.284182
C       1.494886      0.180108     -0.175555
N       1.051387     -1.047434     -0.447796
N      -0.221110     -1.064195     -0.180985
H      -2.023438      1.401913      0.293552
H      -0.169996      0.117535      1.480811
H       2.537358      0.390298     -0.364145
H      -0.738410     -1.926707     -0.219977
