16
smiles: [C:1]1([H:8])([H:10])[C@@:2]2([O:3][H:11])[C@:4]1([H:12])[N:5]1[C:6]([H:14])([H:15])[C@@:7]21[H:16].[H:9][H:13]
C        0.33866200      -1.15605700      -0.26787300
C        0.39608900       0.17075500       0.38349200
O        1.59500900       0.77921700       0.67339100
C       -0.39292500       0.01373200      -0.88376500
N       -1.66887600       0.46238300      -0.22118600
C       -2.01983700      -0.41415400       0.89840900
C       -0.92836100       0.55828900       1.06269000
H        1.24583100      -1.37673600      -0.81804200
H        3.28719600       0.63858600      -2.28654300
H       -0.13378100      -2.02866400       0.16402400
H        1.50941000       1.72310900       0.51888300
H       -0.21815200       0.33225500      -1.90129300
H        2.97821100       0.62661100      -1.60919300
H       -1.83262900      -1.47776300       0.84812100
H       -2.97787900      -0.15253100       1.33244300
H       -1.01235100       1.44249700       1.68534000
