16
Extracted from Q-Chem output
C       1.181004     -1.144633     -0.032295
C       0.585199      0.076391      0.386018
O       1.502233      0.936998      1.002362
C      -0.145809      0.648977     -0.835885
N      -1.332761      1.112156     -0.120102
C      -2.008834     -0.144822      0.248960
C      -0.826054      0.288225      1.008363
H       2.234164     -1.312279      0.143872
H       1.687954     -0.261538     -1.447712
H       0.560155     -2.007961     -0.234165
H       1.461109      1.780162      0.540816
H      -0.376821     -0.033626     -1.657455
H       1.407480      0.529229     -1.634596
H      -1.947885     -0.979903     -0.441151
H      -2.973941     -0.012100      0.725081
H      -0.873211      0.649075      2.029637
