14
Extracted from Q-Chem output
O       0.970633     -0.044695     -1.852963
C       0.457702      0.407600     -0.745699
C      -0.615339     -0.402532     -0.200593
C      -0.957054     -0.019085      1.219230
O       0.293632      0.512258      1.652853
C       1.227532      0.138019      0.649816
H      -0.499168     -0.276361     -2.344723
H       0.239060      1.488814     -0.671450
H      -0.619125     -1.451287     -0.475629
H      -1.272188     -0.305333     -2.003866
H      -1.244092     -0.882728      1.826734
H      -1.738012      0.741789      1.297133
H       2.077573      0.814740      0.671413
H       1.573609     -0.896291      0.741129
