17
smiles: [C-:1]([N+:2]1=[C:3]([H:10])[C:4]1([C:5]([H:12])([H:13])[H:14])[C:6]([H:15])([H:16])[H:17])([H:7])[H:9].[H:8][H:11]
C        1.82215100       0.56053800      -0.56517700
N        0.79574800       0.33437800       0.18575300
C        0.12501000       0.30566800       1.32604600
C       -0.65024300       0.12424000       0.07584100
C       -1.40369000       1.26300200      -0.57997000
C       -1.12244700      -1.25701600      -0.31405900
H        2.73922500       0.91765300      -0.11893100
H        2.53578800      -1.92696900       1.37495900
H        1.74774400       0.34462500      -1.62014600
H        0.15078300       1.04977700       2.10791600
H        1.91625700      -1.62645300       1.65822200
H       -2.42599500       1.28093500      -0.19578400
H       -1.46180300       1.14587000      -1.66486900
H       -0.93617600       2.22227900      -0.35557200
H       -2.14244800      -1.40747500       0.04676900
H       -1.13123200      -1.38885300      -1.39962700
H       -0.48591800      -2.01709500       0.13661700
