17
Extracted from Q-Chem output
C       1.974222      0.144777     -0.446849
N       0.839669      0.558323      0.097879
C       0.278304      0.340956      1.295268
C      -0.563255      0.150384      0.078589
C      -1.519995      1.209156     -0.422981
C      -0.910234     -1.257646     -0.354159
H       2.894163      0.531402     -0.026434
H       1.924297     -1.192737      0.829808
H       1.964326     -0.110474     -1.500355
H       0.221044      0.980707      2.163530
H       1.304429     -0.983480      1.420818
H      -2.515033      1.037625     -0.006132
H      -1.607191      1.180005     -1.512575
H      -1.191213      2.204751     -0.125325
H      -1.834949     -1.572178      0.134018
H      -1.076182     -1.303620     -1.433967
H      -0.127923     -1.966024     -0.089172
