12
Extracted from Q-Chem output
O      -0.555749     -2.074695      1.402476
C      -0.176767     -1.148871      0.737319
C       1.083518     -1.053905     -0.053711
N      -1.205650      0.469592     -0.833523
C      -0.871409      0.187390      0.573872
C       0.024442      1.019259     -0.242814
C       1.209023      0.166627     -0.570188
H       1.754786     -1.890951     -0.181867
H      -1.928298      1.182586     -0.857229
H      -1.498671      0.567096      1.368487
H       0.120719      2.087338     -0.100853
H       2.023321      0.507469     -1.196559
