12
Extracted from Q-Chem output
O      -0.691067     -1.963665      1.275589
C      -0.258452     -1.006280      0.686634
C       0.829405     -0.923011     -0.317144
N      -1.161866      0.093173     -0.849904
C      -0.762672      0.402224      0.538683
C       0.412749      1.229467      0.165106
C       1.348061      0.383348     -0.367171
H       1.290533     -1.797788     -0.760743
H      -2.153917     -0.184470     -0.830064
H      -1.518153      0.787581      1.217373
H       0.416721      2.309103      0.131830
H       2.246990      0.674039     -0.889838
