12
Extracted from Q-Chem output
O      -1.398334     -1.049350     -0.290895
C      -0.745931     -0.579303      0.701359
C      -0.442780      0.922139      0.589161
C       0.311812      0.902614     -0.732386
C       1.230762     -0.087162     -0.481039
C       1.493910     -1.121808      0.166152
H      -0.812325     -1.154233      1.620840
H       0.134404      1.250684      1.458459
H      -1.394963      1.467585      0.575574
H      -1.074461     -0.430151     -1.040508
H       0.352128      1.684286     -1.470933
H       2.179780     -1.583597      0.847154
