15
Extracted from Q-Chem output
O       0.869983     -2.534203      0.504347
C       0.529841     -1.418890      0.206502
C      -0.887304     -1.026335     -0.112779
C      -1.150935      0.439921      0.217637
C      -0.129016      1.351791     -0.462511
C       1.323794      1.005698     -0.303249
C       1.565432     -0.311857      0.088265
H      -1.013996     -1.192026     -1.190258
H      -1.564541     -1.711915      0.397364
H      -2.167074      0.714818     -0.073035
H      -1.094448      0.583008      1.302653
H      -0.266153      1.322671     -1.553873
H      -0.295212      2.396420     -0.192884
H       1.652185      0.607197      0.940307
H       2.589694     -0.675192      0.183559
