11
Extracted from Q-Chem output
N       2.375248      0.165332      0.150243
C       1.128753      0.124077      0.077082
C       0.383096     -1.134546     -0.085082
N      -0.873158     -1.210585     -0.165829
C      -1.603189      0.037547     -0.090920
C      -0.939860      1.361896      0.077478
O       0.372278      1.307513      0.148748
H       2.713486      1.120213      0.260448
H       0.994131     -2.033407     -0.132540
H      -2.340085     -0.028791      0.719432
H      -2.233859      0.136224     -0.983596
