11
Extracted from Q-Chem output
N       2.347888      0.170377      0.062404
C       1.092662      0.133086      0.038124
C       0.387042     -1.162383     -0.019242
N      -0.875056     -1.297016      0.015462
C      -1.583077     -0.075241      0.143644
C      -1.042911      1.211126      0.214035
O       0.314144      1.262844      0.031523
H       2.689295      1.129629      0.086949
H       1.024180     -2.038824     -0.108609
H      -2.641198     -0.177277      0.358686
H      -1.729631      0.766583     -0.839130
