17
smiles: [C:1]([C@@:2]1([H:11])[C-:3]([H:12])[O+:4]=[C:5]([C:6]([H:15])([H:16])[H:17])[O:7]1)([H:8])([H:9])[H:10].[H:13][H:14]
C        2.07138500       0.72225400      -0.68827800
C        1.22860700      -0.42632700      -0.15879200
C        0.79319600      -0.40518500       1.29997900
O       -0.49466300       0.33196600       1.15621600
C       -0.91636000       0.19981300      -0.01384600
C       -2.29025300       0.54552000      -0.43158800
O       -0.09633100      -0.36991700      -0.84382900
H        2.19659800       0.66991700      -1.77264200
H        3.05788200       0.67037200      -0.22403000
H        1.62565900       1.68472600      -0.42479400
H        1.65615000      -1.38275200      -0.45991300
H        1.41092500       0.25502700       1.91220600
H       -0.94819000      -2.26023200       1.31012100
H       -1.59440400      -2.53520800       1.06276000
H       -2.26681400       1.11962400      -1.35713100
H       -2.84856300      -0.37455800      -0.62043800
H       -2.78479400       1.11082600       0.35362100
