17
Extracted from Q-Chem output
C       2.020238      1.296694     -0.336679
O       0.671583      0.968800     -0.134252
C       0.387630     -0.380704     -0.475811
C       0.847016     -1.492147      0.446031
O      -0.808283     -1.316248      1.130347
C      -1.071977     -0.677840     -0.179260
C      -2.039947      0.460726     -0.031152
H       2.686325      0.694780      0.293941
H       2.311802      1.151748     -1.385946
H       2.147055      2.346766     -0.076345
H       0.673520     -0.543001     -1.523175
H       1.399222     -1.061305      1.292594
H      -1.141390     -2.217005      1.135017
H      -1.443620     -1.446240     -0.857132
H      -2.167488      0.956094     -0.994929
H      -3.011520      0.092887      0.303382
H      -1.662612      1.192125      0.680457
