17
Extracted from Q-Chem output
C       2.015777      1.222402     -0.371995
O       0.656451      0.942545     -0.160542
C       0.334504     -0.402539     -0.438753
C       0.760923     -1.426606      0.584761
O      -0.990949     -1.352202      1.115517
C      -1.146571     -0.664325     -0.167018
C      -2.056362      0.519949     -0.001881
H       2.663271      0.618378      0.276419
H       2.301146      1.037291     -1.416027
H       2.174416      2.274271     -0.140203
H       0.660323     -0.647720     -1.458382
H       1.290391     -0.996051      1.437256
H      -0.363922     -2.194475      0.843977
H      -1.557664     -1.369162     -0.894975
H      -2.146825      1.055900     -0.947676
H      -3.046815      0.179990      0.304314
H      -1.664465      1.206565      0.745880
