15
smiles: [C:1]([H:8])([H:9])([H:10])[H:11].[C:2]1[C@@:3]2([H:12])[O:4][C@@:5]2([H:13])[C@:6]1([O:7][H:15])[H:14]
C        2.42918100      -0.70280600       0.52955000
C       -0.93397600       0.75914300       0.92242500
C       -0.32186100       1.36545800      -0.16612000
O       -0.52901600       0.73470600      -1.43073400
C       -1.71971600       0.71007500      -0.68564700
C       -1.66598700      -0.42292800       0.27113800
O       -1.01446800      -1.56852000      -0.16126200
H        2.25255000      -0.45079700      -0.51508000
H        1.63478000      -1.35832100       0.88306600
H        3.38773500      -1.21109000       0.62242300
H        2.44126400       0.20851000       1.12545700
H        0.08702200       2.36798700      -0.22504000
H       -2.51705300       1.38400700      -0.96649000
H       -2.57294000      -0.70522700       0.79101300
H       -0.30050800      -1.30444800      -0.75087700
