15
Extracted from Q-Chem output
C       1.914796     -0.578647      0.315745
C       0.101417      0.600647      0.752031
C      -0.217348      1.335431     -0.459466
O      -0.733843      0.517055     -1.547620
C      -1.558627      0.683902     -0.420460
C      -1.087766     -0.378894      0.577565
O      -0.948357     -1.652012      0.023571
H       2.845114     -0.554448      0.884292
H       2.058000     -0.211798     -0.693843
H       1.455875     -1.560447      0.344825
H       1.323191      0.201177      1.038321
H       0.032903      2.349699     -0.735698
H      -2.524639      1.156973     -0.540807
H      -1.663740     -0.485080      1.494547
H      -0.659162     -1.522079     -0.887903
