14
Extracted from Q-Chem output
C      -1.739520     -0.695476      0.072420
C      -0.758439      0.382093     -0.290677
O      -0.243499      1.107720      0.867575
C       1.084874      0.873429      0.486553
C       1.342087     -0.943088      0.222136
C       0.676632     -0.000175     -0.689824
H      -2.597203     -0.264950      0.591896
H      -1.263771     -1.436377      0.713851
H      -2.100806     -1.185601     -0.834765
H      -1.193578      1.108112     -0.984438
H       1.759378      1.714906      0.354552
H       2.403255     -0.945925     -0.083446
H       1.558291      0.119559      1.259881
H       1.055058      0.208571     -1.684197
