10
Extracted from Q-Chem output
N       1.621111     -0.262276     -0.262338
C       0.609678     -0.453819      0.512455
O       0.340958     -0.979413      1.608520
C      -0.722787      0.013914     -0.017299
O      -1.255973      1.087310      0.470742
H       0.629758      0.306496     -1.401678
H       2.490566     -0.639313      0.091283
H      -0.155741      0.491825     -1.633394
H      -1.399237     -0.746799     -0.408005
H      -2.213657      1.104561      0.363510
