12
Extracted from Q-Chem output
O       1.660701     -0.449212     -0.744803
C       0.914416      0.155570      0.209689
C      -0.924132      1.105560     -0.000802
C      -1.184105     -0.313184     -0.563326
C      -0.337524     -0.575516      0.663097
O      -0.915554      0.572228      1.327505
H       2.477797      0.032909     -0.890213
H       1.461015      0.672576      1.003886
H       0.177018      1.457637     -0.242974
H      -2.234740     -0.580303     -0.464407
H      -0.779026     -0.583236     -1.536544
H      -0.274741     -1.506292      1.246255
