15
smiles: [C-:1]([N+:2](=[C:3]([H:10])[H:12])[C:4]([C:5](=[O:6])[H:15])([H:13])[H:14])([H:8])[H:9].[H:7][H:11]
C       -1.02978100      -0.96747500       0.41877300
N       -0.26675400       0.05491600       0.05626000
C       -0.52549800       1.35408100       0.12007200
C        1.10113400      -0.29033600      -0.32302300
C        1.98130700      -0.31394600       0.91152300
O        3.15235700      -0.55410100       0.86063500
H       -2.40654200      -0.05253400      -1.90693700
H       -2.02357600      -0.77253000       0.78776100
H       -0.65293800      -1.96606600       0.28693600
H        0.22043500       2.04749000      -0.22509200
H       -2.12593200       0.63715500      -1.90569200
H       -1.49067100       1.67804900       0.47387500
H        1.48091200       0.44297000      -1.03393300
H        1.11263200      -1.26866700      -0.80293100
H        1.45501500      -0.09382900       1.86234000
