15
Extracted from Q-Chem output
C       0.386775     -0.515226     -1.451248
C       0.710484      0.588646      1.232185
C       0.204291      1.466959      0.114841
N      -0.445619      0.219199     -0.482888
C      -0.461065     -0.315345      0.951333
C      -0.327927     -1.771961      1.058780
N      -0.233163     -2.914606      1.109038
H       0.434954      0.063938     -2.372328
H       1.372791     -0.622342     -1.004796
H      -0.054581     -1.492223     -1.643020
H       0.847472      0.984785      2.232831
H       0.905761      1.949346     -0.573927
H      -0.643851      2.163121      0.293720
H      -1.378099      0.373018     -0.859679
H      -1.478734     -0.050221      1.319893
