8
Extracted from Q-Chem output
N      -1.095949      0.545991      0.127139
C       0.155166      0.980823      0.072169
C       0.999470     -0.123561     -0.084478
N       0.252986     -1.218519     -0.123190
N      -0.968986     -0.755537      0.006487
H      -1.767397     -1.366207      0.012869
H       0.382827      2.031131      0.146154
H       2.072119     -0.178285     -0.168312
