8
smiles: [C:3](=[O:4])=[C:5]=[C:6]([H:7])[H:8].[O+:1]#[C-:2]
O       -2.93305000      -1.19349500      -0.10196100
C       -1.86152600      -1.45351100       0.11314000
C       -0.03658800       1.43911000      -0.34613600
O       -0.85885800       2.18727000      -0.68119500
C        1.00404400       0.76145400       0.00951100
C        1.55990200      -0.36696400       0.39595000
H        0.98770000      -1.28323300       0.52868400
H        2.62547600      -0.43366800       0.59952200
