16
Extracted from Q-Chem output
C       0.781246      1.210364      0.492570
C       0.213796     -0.097694     -0.048503
C       1.311272     -0.996718     -0.571550
C      -0.822925     -0.780471      0.807181
O      -1.921183      0.086824      0.736235
C      -1.862949      0.603377     -0.454697
N      -0.816920      0.129110     -1.145108
H       1.283912      1.766974     -0.300216
H       1.510480      0.992436      1.274146
H       0.003817      1.849546      0.914850
H       1.984544     -1.283970      0.238102
H       0.896383     -1.904644     -1.010934
H       1.893041     -0.473772     -1.332355
H      -1.084872     -1.036599     -0.820318
H      -0.672794     -1.121095      1.826475
H      -2.735530      1.105728     -0.845311
