14
Extracted from Q-Chem output
C       1.161882     -1.066286     -1.371617
C       0.720732      0.544933      0.835846
O       0.618719      1.319656      1.960663
C      -0.286630      0.155325      0.055014
O      -0.135364     -0.634288     -1.051368
C      -1.728260      0.494357      0.250074
H       1.594866     -1.664085     -0.561420
H       1.825319     -0.219878     -1.582921
H       1.072278     -1.681488     -2.264640
H       1.749496      0.279856      0.643222
H      -0.304360      1.490470      2.156328
H      -2.302004     -0.395395      0.518320
H      -2.140229      0.887225     -0.680984
H      -1.889054      1.247585      1.021998
