14
Extracted from Q-Chem output
C       1.563940     -0.841485     -1.192818
C       0.604104      0.376787      0.626641
O       0.641388      1.535562      1.376561
C      -0.563771     -0.142758      0.066548
O      -0.424467     -1.044612     -0.803854
C      -1.941442      0.291526      0.457911
H       1.449580     -1.885390     -1.447674
H       2.476907     -0.624713     -0.654403
H       1.334636     -0.144369     -1.984670
H       1.255020     -0.386080      1.038620
H       0.428911      2.279232      0.811733
H      -2.535296     -0.599725      0.666209
H      -2.425201      0.813481     -0.370391
H      -1.921537      0.938048      1.334621
