12
Extracted from Q-Chem output
N      -0.875077     -0.827663     -0.948821
C       0.329376     -0.555285     -1.240051
C      -1.260296     -0.040621      0.228776
C      -0.016339      0.686760      0.701969
N       1.125482     -0.127277      1.074809
C       1.031318      0.368110     -0.301987
H      -1.682926     -0.704611      0.987705
H       0.804297     -1.002025     -2.109875
H      -2.048781      0.657344     -0.062813
H      -0.088255      1.649129      1.192431
H       0.879675     -1.111197      1.118248
H       1.816485      1.036830     -0.629633
