12
Extracted from Q-Chem output
N      -0.896660     -1.252361     -0.332166
C      -0.016282     -0.376524     -1.060139
C      -1.094032      0.167982     -0.204781
C      -0.022088      0.895001      0.682784
N       0.987731      0.025336      1.227627
C       1.055235      0.351128     -0.172987
H      -0.500521     -1.728055      0.470007
H       0.048570     -0.464710     -2.135314
H      -2.050127      0.595112     -0.471485
H      -0.152647      1.882062      1.102928
H       0.695551     -0.917034      1.458536
H       1.945270      0.822062     -0.565008
