14
Extracted from Q-Chem output
C       2.308530      0.508987      0.346548
N       1.334801      0.265399     -0.708089
C      -0.077817      0.139066     -0.443091
N       0.239589      1.288561     -0.929577
N      -2.868450      0.478553     -0.047530
C      -2.282863     -0.613477      0.256352
C      -0.867785     -0.826383      0.072178
H       1.773339      0.887460      1.213766
H       2.814765     -0.422109      0.603698
H       3.032578      1.250984      0.011181
H       1.686720     -0.143903     -1.563781
H      -3.860774      0.422497      0.159941
H      -2.821065     -1.469339      0.682373
H      -0.411566     -1.766298      0.346031
