7
Extracted from Q-Chem output
O      -1.094629     -1.030206      0.094646
C      -0.357211      0.044450      0.049254
C       1.034414     -0.008386     -0.051928
C       2.228164      0.119665     -0.135710
C      -1.998638      0.085590      0.114351
N      -3.064167      0.557725      0.141886
H       3.288183      0.215342     -0.211001
