13
Extracted from Q-Chem output
C      -1.680597     -0.389950      0.396549
C      -0.543285      0.055169     -0.490518
C       0.509509      1.019273      0.125103
C       1.370927     -0.161222     -0.160679
O       2.674054     -0.324110      0.047394
N       0.529948     -0.975574     -0.665629
H      -2.210750     -1.227063     -0.060657
H      -1.306507     -0.719620      1.368652
H      -2.392870      0.422649      0.556634
H      -0.914575      0.393030     -1.460965
H       0.739222      1.923497     -0.437913
H       0.372548      1.259225      1.179667
H       2.911802     -1.206524     -0.263546
