13
Extracted from Q-Chem output
C      -1.613529     -0.448109      0.347126
C      -0.429737      0.034117     -0.452492
C       0.510752      1.094529      0.200815
C       1.542045      0.009763     -0.002560
O       2.761860     -0.325570     -0.027151
N       0.751209     -0.905658     -0.462296
H      -2.062225     -1.324114     -0.123610
H      -1.309899     -0.724077      1.358778
H      -2.375157      0.332315      0.412964
H      -0.720403      0.307824     -1.468637
H       0.684853      2.009858     -0.361688
H       0.290746      1.327172      1.241767
H       1.999991     -1.347823     -0.595465
