15
Extracted from Q-Chem output
C      -1.869252     -0.225724      0.133282
C      -0.591219      0.538990     -0.131176
O      -0.042142      0.971589      1.137523
C       1.069473      0.236593      1.351283
C       1.437379     -0.553352      0.347696
C       0.511482     -0.306864     -0.806937
O       1.142356      0.343641     -1.899037
H      -1.660155     -1.127994      0.712450
H      -2.575141      0.388000      0.692699
H      -2.332592     -0.519304     -0.810524
H      -0.782778      1.436537     -0.721967
H       1.530383      0.380228      2.319291
H       2.293127     -1.209176      0.331150
H       0.086486     -1.217901     -1.233175
H       1.757426      0.988597     -1.540848
