16
Extracted from Q-Chem output
C       1.492353      1.062221      0.231405
C       0.638877     -1.085976     -0.751979
C       1.184402     -0.423445      0.467138
C      -1.483801     -0.039593     -0.942863
C      -1.833770      0.055880      0.489845
O      -0.443444     -0.692938     -1.367408
H       2.276027      1.183970     -0.518157
H       0.610317      1.599239     -0.125597
H       1.823533      1.539857      1.155708
H       1.302418     -1.598074     -1.435429
H       2.105670     -0.951261      0.721592
H       0.533491     -0.519849      1.340085
H      -2.225657      0.075620     -1.719138
H      -2.855967      0.422026      0.579249
H      -1.782656     -0.941446      0.954890
H      -1.190999      0.712355      1.087873
