10
Extracted from Q-Chem output
O       2.393052      0.029001      0.450196
C       1.219162      0.191918      0.278233
C       0.243198     -0.893902     -0.219686
N      -0.987308     -0.143887     -0.271426
C      -0.728003      1.101785      0.167987
N       0.494478      1.376973      0.484932
H       0.555587     -1.268721     -1.195163
H       0.204694     -1.722738      0.489378
H      -1.900236     -0.512526     -0.455526
H      -1.532570      1.826272      0.238071
