10
Extracted from Q-Chem output
O       2.261450     -0.108299     -0.097476
C       1.052458      0.177534      0.204445
C       0.138508     -0.902114     -0.086231
N      -1.081911     -0.174048     -0.196443
C      -0.820223      1.095701      0.131086
N       0.443040      1.366114      0.405862
H       1.446268     -0.988292     -0.694368
H       0.118488     -1.783630      0.547039
H      -1.995800     -0.545409     -0.379131
H      -1.600223      1.846618      0.132213
