16
Extracted from Q-Chem output
C      -1.836167      0.845212      0.700876
C      -0.926175     -0.265372      0.248413
C       0.355304     -0.214756      0.453657
C      -1.561056     -1.424638     -0.472165
C       1.649904     -0.149743      0.636613
C       2.577235      0.463993     -0.331066
N       2.193006      0.992534     -1.416282
H      -2.596883      0.459887      1.385120
H      -2.355159      1.275849     -0.159236
H      -1.284811      1.638074      1.202976
H      -0.823172     -2.171191     -0.760000
H      -2.067004     -1.070642     -1.373979
H      -2.313404     -1.901384      0.161786
H       2.084167     -0.564848      1.541317
H       3.632264      0.426973     -0.034915
H       2.986283      1.356329     -1.937317
