15
Extracted from Q-Chem output
C      -0.904917     -0.712480     -1.446434
C       0.167538     -0.046263     -0.621475
C      -0.645540      0.039334      1.902342
C       1.027320     -0.788760      0.146529
C       1.447792     -1.296748      1.183506
C       0.523736      1.291873     -0.958770
C       0.801011      2.419775     -1.264418
H      -0.538323     -0.913229     -2.457118
H      -1.775325     -0.062871     -1.531390
H      -1.205793     -1.659068     -0.998558
H      -0.858144     -0.884461      1.411198
H       0.199639      0.658833      1.696327
H      -1.340965      0.371520      2.670292
H       2.073497     -1.863305      1.836336
H       1.053322      3.419042     -1.529218
