13
smiles: [C:3](=[C:4]1[C:5]([H:11])([H:12])[N:6]1[H:13])([H:8])[H:9].[O:1]=[C:2]([H:7])[H:10]
O        0.12552200       1.40362600       1.76997600
C        1.20875700       1.18018000       1.31557800
C        0.80664300      -1.25582500      -0.69730500
C       -0.38344800      -0.72515100      -0.52401600
C       -1.44488000       0.19532500      -0.86927600
N       -1.49608500      -0.71145900       0.30970800
H        1.59212000       1.71342900       0.42455200
H        1.20867000      -1.96578100       0.01409200
H        1.40071600      -0.99690000      -1.56277800
H        1.88692800       0.42703200       1.76064500
H       -2.16411600      -0.04078100      -1.64463200
H       -1.26965900       1.25379800      -0.70330000
H       -1.34824700      -0.24768600       1.19773100
