12
Extracted from Q-Chem output
C       1.752035      0.336603     -0.533824
C       0.348537      0.326724     -0.036273
O       0.071396      1.454499      0.641665
C      -0.514624     -0.685860     -0.248591
C      -1.887137     -0.716081      0.218037
O      -2.661584     -1.622062      0.026305
H       1.987811     -0.582478     -1.064469
H       2.439283      0.458603      0.305288
H       1.897938      1.187100     -1.202610
H      -0.176392     -1.546716     -0.809052
H      -0.833966      1.446682      0.965526
H      -2.242330      0.171343      0.794878
