12
Extracted from Q-Chem output
C      -0.921050     -0.215382      1.023683
C      -0.760354     -0.659905     -0.389512
O      -0.621539      0.328511     -1.385262
C       0.538031      0.993402     -1.119429
C       1.227593      0.512263     -0.089204
C       0.450659     -0.602465      0.510910
H      -1.421546     -0.913023      1.682004
H      -1.108466      0.832150      1.221773
H      -1.227507     -1.562601     -0.757064
H       0.749395      1.820553     -1.780446
H       2.182420      0.875336      0.255614
H       0.942798     -1.483606      0.900759
