17
smiles: [C:1](=[C:2]1[N:3]([H:12])[C@:4]1([C@@:5]1([H:14])[C:6]([H:15])([H:16])[N:7]1[H:17])[H:13])([H:9])[H:10].[H:8][H:11]
C       -2.22846000       0.11273800       0.54732900
C       -1.11147100       0.21017400      -0.13819000
N       -0.30317400       1.09850600      -0.84548400
C        0.15663100      -0.29626200      -0.62251100
C        1.26929600      -0.63017100       0.32655400
C        2.46341000       0.23477700       0.42382900
N        1.51324000       0.13989000       1.53016100
H       -2.55753100      -0.85298600      -2.44892700
H       -2.86883000       0.97256700       0.69711700
H       -2.53045500      -0.83603200       0.96852400
H       -2.55823500      -1.20076000      -3.10730900
H        0.15148700       1.80774800      -0.28016700
H        0.18185900      -0.87323500      -1.54228000
H        1.39616800      -1.70007500       0.46166600
H        3.43907100      -0.19535300       0.61564500
H        2.47526100       1.13780800      -0.17844600
H        0.90962500       0.95284900       1.58427000
