17
Extracted from Q-Chem output
C      -2.047975      0.014961      0.260392
C      -1.120602     -0.055786     -0.804182
N      -0.208423      0.872663     -1.369792
C       0.286959     -0.448523     -0.949536
C       1.158615     -0.677112      0.247618
C       2.134019      0.352123      0.673846
N       0.983522      0.026278      1.502592
H      -2.239803     -0.498057     -1.222614
H      -2.685302      0.882856      0.351338
H      -2.074266     -0.771659      0.998517
H      -1.676930     -0.545235     -2.085231
H      -0.042280      1.612550     -0.694110
H       0.558128     -1.062518     -1.801231
H       1.428179     -1.722279      0.364220
H       3.094517      0.054945      1.077014
H       2.142669      1.288440      0.124322
H       0.235748      0.708676      1.437516
