13
Extracted from Q-Chem output
O      -0.796282      0.977735      1.126053
C      -0.861824     -0.272784      0.853934
C      -1.137669     -0.451494     -1.200282
C      -0.214245     -0.896960     -0.259193
O       1.518906     -0.539609     -0.451887
C       1.869101      0.679700     -0.504733
O       1.214843      1.666500     -0.142898
H       0.008472      1.382339      0.584274
H      -1.448099     -0.886043      1.533187
H      -1.507036     -1.126071     -1.961842
H      -1.439894      0.582943     -1.253528
H      -0.082103     -1.967841     -0.182446
H       2.873009      0.845894     -0.921929
