11
Extracted from Q-Chem output
N      -1.800026     -0.415188      0.060208
C      -0.532598     -0.188893     -0.134997
C      -0.243492      1.152041      0.266504
O       1.175902      1.122929      0.538752
C       1.678755     -0.048102      0.136570
O       2.810620     -0.404434      0.219603
N       0.611206     -0.849626     -0.377035
H      -2.322791     -1.148775     -0.401008
H      -1.651731      0.754913      0.670661
H      -0.440212      1.885915     -0.515569
H       0.740787     -1.842189     -0.474862
