14
smiles: [C:1](=[C:2]1[C:3]([H:10])([H:11])[C@@:4]2([H:12])[O:5][C@@:6]12[H:14])([H:7])[H:8].[H:9][H:13]
C        1.53489500      -1.01449000      -0.80189600
C        0.37622600      -0.48195300      -0.46718900
C       -0.68813000      -0.78376200       0.59060400
C       -1.55708900       0.27138300      -0.10355600
O       -0.83896700       1.48799900      -0.05955200
C       -0.50633600       0.55588500      -1.09185100
H        2.07064200      -0.67546200      -1.68069700
H        1.98459800      -1.80821400      -0.21737400
H        1.01646200       1.83785300       1.77558200
H       -1.07581100      -1.79962400       0.50047300
H       -0.44271000      -0.56538900       1.62994700
H       -2.63369000       0.31963400      -0.19644900
H        1.53087800       1.94509200       2.30305600
H       -0.56119500       0.90371900      -2.11447400
