14
Extracted from Q-Chem output
C       1.439628     -0.501993     -0.449619
C       0.149777     -0.215873     -0.009465
C      -0.905316     -1.023760      0.683395
C      -1.512226     -0.059571     -0.253413
O      -1.612281      1.188228      0.325269
C      -0.197503      1.202684      0.038412
H       1.832980     -0.014027     -1.332680
H       1.883901     -1.460518     -0.210944
H       1.822010      0.861532      0.488010
H      -0.902468     -2.062791      0.374845
H      -1.114689     -0.852258      1.735859
H      -1.955195     -0.237657     -1.223770
H       1.219641      1.524470      0.733668
H       0.004758      1.802789     -0.850518
