11
smiles: [C-:5]#[O+:6].[O:1]([C:2](/[C:3](=[N:4]/[H:11])[H:10])([H:8])[H:9])[H:7]
O        0.24312700       1.77284200      -0.50105100
C       -0.59753600       0.99392400       0.32749800
C       -1.00734300      -0.28256800      -0.35013600
N       -0.88915600      -1.39780400       0.22985700
C        2.47462200      -0.56685700       0.20191400
O        2.96172400      -1.49995300       0.59457500
H        1.08297400       1.31853800      -0.59202800
H       -0.13531100       0.75383000       1.28994300
H       -1.48446500       1.60451000       0.51561900
H       -1.39139500      -0.16365000      -1.37115400
H       -1.21425600      -2.15783600      -0.36436200
