11
Extracted from Q-Chem output
O       0.145883      1.888971     -0.837249
C       0.039405      0.917707      0.050178
C      -0.776086     -0.239494     -0.223526
N      -0.470471     -1.357789      0.480495
C       1.625972     -1.069525      0.205680
O       2.330591     -1.930312      0.446792
H       0.433377      2.708214     -0.424887
H       0.376412      1.090475      1.067366
H      -1.528867      0.480665      0.347224
H      -1.150172     -0.255794     -1.254980
H      -1.003658     -2.153840      0.149711
