10
Extracted from Q-Chem output
O      -2.596923      0.771230      0.432380
C      -1.450231      0.419426      0.452992
C      -0.941810     -0.590912     -0.537754
N       0.260944     -0.933055     -0.706327
C       1.322892     -0.303644     -0.059367
N       1.564865      0.927554     -0.207167
H      -0.733600      0.790643      1.203730
H      -1.717813     -1.072985     -1.132898
H       1.954736     -1.008554      0.488280
H       2.429066      1.181526      0.263116
