10
smiles: [C:4](=[C:5]=[O:6])([H:9])[H:10].[N:1]([C:2]#[N:3])([H:7])[H:8]
N        2.21929300       0.13145800      -0.55583000
C        1.26714700       1.05581100      -0.37457500
N        0.44993200       1.85933800      -0.26487700
C       -2.24549100      -0.21417100       0.36486200
C       -1.16664500      -0.95258200       0.34223300
O       -0.21318700      -1.60463100       0.32246500
H        3.11421100       0.35153900      -0.14990600
H        1.92654200      -0.82109500      -0.41043200
H       -2.15262900       0.85768000       0.28702900
H       -3.20901300      -0.68943400       0.46037100
