17
Extracted from Q-Chem output
C       2.611044      0.390005     -0.711257
C       1.414943     -0.159793     -0.572010
C      -1.122847     -0.751623      2.022454
C      -1.361968     -0.485249      0.745249
O      -2.077511     -1.374725     -0.004882
C      -0.877256      0.735677      0.019250
C       0.142181      0.434423     -1.092621
H       3.501047     -0.078927     -0.309833
H       2.744221      1.332214     -1.233668
H       0.360694      1.358695     -1.632516
H       1.319621     -1.101676     -0.037534
H      -0.535072     -0.070117      2.619193
H      -1.504880     -1.653309      2.481721
H      -2.257376     -1.001013     -0.869352
H      -1.741652      1.250110     -0.417935
H      -0.433519      1.420834      0.742079
H      -0.299099     -0.253408     -1.823685
