13
Extracted from Q-Chem output
C      -2.206961      0.312630     -0.005014
O      -1.178358     -0.675688      0.017374
C       0.061634     -0.223959     -0.011505
N       0.393592      1.009671     -0.057400
N       1.815418      0.949627     -0.069960
C       2.421087     -0.202219     -0.036566
C       1.241760     -1.144383      0.006579
H      -3.146117     -0.233679      0.025852
H      -2.117734      0.971959      0.859388
H      -2.140523      0.908287     -0.916444
H       2.271431      1.846494     -0.104729
H       1.252334     -1.826098     -0.847251
H       1.269696     -1.768387      0.903061
