9
Extracted from Q-Chem output
N      -1.792055      0.026392      0.250942
C      -0.506698     -0.366587      0.166658
N       0.281549     -1.240154      0.374920
N       1.991121     -0.297714     -0.314102
N       1.458453      0.819156     -0.454792
N       0.373543      1.230994     -0.475304
H      -2.483852     -0.696578      0.340490
H      -2.055297      0.840181     -0.274451
H       2.733614     -0.302340      0.381595
