9
Extracted from Q-Chem output
C      -0.958446     -0.000169     -0.037325
C       0.506316      0.061865      0.302467
O       1.132267     -1.041550      0.668320
H      -1.473915     -0.163020      0.912962
H      -1.323021      0.926325     -0.483314
H      -1.166060     -0.849147     -0.686013
H       0.803400      1.009295      0.784489
H       1.056792      0.422590     -0.975267
H       1.412427     -0.360689     -0.518938
