17
Extracted from Q-Chem output
O       1.476612      0.688451      0.746256
C       2.271691     -0.092707     -0.009048
C       2.004252     -1.245258     -0.610904
C       0.126558      0.310252      0.977532
C      -0.814615      0.870209     -0.051505
C      -1.273804      0.076029     -1.236035
C      -2.220791      0.351474     -0.107791
H       3.259305      0.351707     -0.070272
H       2.797770     -1.735336     -1.155892
H       1.039148     -1.729314     -0.591284
H      -0.111144      0.727931      1.957972
H       0.036197     -0.778949      1.050333
H      -0.691133      1.936009     -0.207816
H      -1.418177      0.600358     -2.171071
H      -0.905023     -0.934633     -1.347301
H      -3.021151      1.062319     -0.262607
H      -2.478472     -0.474480      0.544271
