17
Extracted from Q-Chem output
O       1.070499     -1.320918      0.907811
C       2.137162     -0.966620      0.336994
C       2.281889      0.062621     -0.567408
C       0.020658      0.815088      0.613682
C      -0.919731      0.733882     -0.451405
C      -1.457050     -0.641446     -0.853522
C      -2.336813      0.243501     -0.086593
H       3.042541     -1.547264      0.587248
H       3.267904      0.365584     -0.897991
H       1.451275      0.318804     -1.211210
H       0.710082      1.643640      0.662269
H      -0.148561      0.262769      1.521198
H      -0.833092      1.461870     -1.247029
H      -1.641689     -0.761742     -1.912574
H      -0.961176     -1.463483     -0.352718
H      -3.144156      0.757833     -0.590761
H      -2.511057      0.031897      0.959214
