14
Extracted from Q-Chem output
C       2.051462     -0.016085     -0.299259
C       0.575660      0.007043     -0.158633
C      -0.474600      0.210259     -1.081366
C      -1.569787      0.414099     -0.076409
C      -1.362350     -0.992427      0.261790
N      -0.058071     -0.711580      0.910457
C      -0.641273      0.612781      1.129652
H       2.394250      0.707695     -1.037957
H       2.380625     -1.016160     -0.596667
H       2.516758      0.211918      0.659692
H      -0.460944      0.460419     -2.132040
H      -2.513478      0.897703     -0.294074
H      -2.026279     -1.791874      0.583688
H      -0.818967      1.009336      2.130497
