14
Extracted from Q-Chem output
O       1.716725     -0.104464     -1.088425
C       1.128131     -0.281246      0.208097
C       0.348334      0.965846      0.524506
C      -1.022518      0.753558      0.011125
C      -1.072596     -0.628643     -0.609042
C       0.208315     -1.347992     -0.330504
N      -0.764466      0.791334      1.445692
H       2.187619     -0.916938     -1.307025
H       1.860849     -0.573591      0.963518
H       0.847779      1.926946      0.543110
H      -1.632055      1.561288     -0.374546
H      -1.228976     -0.617396     -1.693355
H      -1.888673     -1.255309     -0.225310
H      -0.781517     -0.137798      1.855264
