14
Extracted from Q-Chem output
O       1.883575     -0.587433     -0.902061
C       1.170414     -0.353726      0.280219
C       0.478588      0.959781      0.452469
C      -0.900283      0.824260     -0.102242
C      -1.081413     -0.560983     -0.638207
C      -0.159261     -1.143973      0.449776
N      -0.641062      0.545628      1.330271
H       1.356376     -0.307893     -1.653225
H       1.857879     -0.575142      1.096198
H       0.933634      1.930052      0.625648
H      -1.491815      1.702853     -0.341316
H      -0.752389     -0.745160     -1.664199
H      -2.102999     -0.926425     -0.538472
H      -0.627767     -0.671781      1.538401
