15
smiles: [C:1]([C:2]([O:5][C:6]([H:13])([H:14])[H:15])([H:10])[H:11])([H:7])([H:8])[H:9].[N:3]#[C:4][H:12]
C        1.83753600       0.18737700      -0.05272500
C        0.62490600       0.05330500      -0.94370500
N       -0.76495900      -0.23416700       4.03511100
C       -0.67521000      -0.15939400       2.89747000
O       -0.52884000       0.01587700      -0.13853400
C       -1.70421200      -0.13881400      -0.88481600
H        1.90166800      -0.65777700       0.63378400
H        2.74920100       0.21657300      -0.65197900
H        1.78068400       1.10410800       0.53560900
H        0.68784300      -0.86499400      -1.54705000
H        0.56318700       0.89890200      -1.64539500
H       -0.59066200      -0.09047700       1.83468100
H       -1.69771800      -1.07748200      -1.45559900
H       -1.84894000       0.69155100      -1.58938900
H       -2.54000100      -0.15759600      -0.18640000
