12
Extracted from Q-Chem output
O       1.040905     -1.485343     -0.865503
C       1.010774     -0.136742     -0.888116
C       0.588731      0.684464      0.239349
C      -0.758571      1.338087      0.300469
N      -0.501711      0.096172      0.982663
C      -0.896329     -1.013013      0.233440
O      -0.009406     -1.967880      0.046442
H       1.934067      0.192019     -1.362731
H       1.375693      1.171476      0.810551
H      -1.363701      1.299154     -0.598187
H      -0.851215      2.203784      0.943889
H      -1.928557     -1.338704      0.251489
