14
Extracted from Q-Chem output
C      -1.839046      0.020707      0.555815
C      -0.437340     -0.017124      0.011370
C       0.163852     -1.172685     -0.548718
O       1.986500     -0.183554      0.250973
C       1.683841      0.959418     -0.291288
O       0.110843      1.150727     -0.331455
H      -2.140827     -0.950658      0.948651
H      -1.906523      0.767860      1.344508
H      -2.528952      0.299311     -0.241347
H       0.317779     -0.473855      0.841760
H      -0.130086     -2.137076     -0.149050
H       0.841702     -1.170234     -1.387410
H       1.974319      1.843579      0.288716
H       1.940068      1.091342     -1.356935
