10
Extracted from Q-Chem output
C      -1.798961     -0.029140     -0.153610
C      -0.471589     -0.030810     -0.245195
N       0.493523      0.061350      0.747173
C       1.705512      0.029342      0.128553
N       1.617118     -0.088122     -1.138481
O       0.234442     -0.132254     -1.406181
H      -2.280665      0.047841      0.808716
H      -2.398684     -0.106707     -1.045992
H       0.313081      0.196779      1.722187
H       2.649466      0.088706      0.646828
