14
Extracted from Q-Chem output
O       1.435548     -1.233341      0.070010
C       1.261985     -0.491624      1.111701
C       0.494859      0.717587      1.076292
C      -0.110730      0.559323     -1.014133
C      -1.125302     -0.330845     -0.247635
C      -0.789444      0.136972      1.120092
H       1.102717     -0.569898     -0.654191
H       1.762299     -0.804124      2.021621
H       0.781626      1.491148      1.793145
H       0.125623      0.263796     -2.049595
H      -0.422246      1.601142     -1.025261
H      -2.187173     -0.198841     -0.491440
H      -0.904319     -1.394976     -0.428836
H      -1.478969      0.255717      1.946867
