13
Extracted from Q-Chem output
C      -1.944147      0.335417     -0.056031
O      -1.153592     -0.847130     -0.120056
C       0.172626     -0.709439     -0.031245
O       0.553940      0.238464      0.889641
C       1.029511     -1.465164     -0.702951
C       1.504991      1.141796      0.536709
O       1.953319      1.910558      1.318719
H      -1.651846      1.041747     -0.838050
H      -2.968256      0.014043     -0.227299
H      -1.866274      0.813757      0.920277
H       0.659244     -2.168701     -1.432319
H       2.086957     -1.428676     -0.489150
H       1.777193      1.070872     -0.527964
