13
Extracted from Q-Chem output
C      -2.194334      0.222213     -0.046069
O      -1.146738     -0.710779     -0.340666
C       0.068574     -0.407242      0.043375
O       0.294616      0.671934      0.701994
C       1.226932     -1.062646     -0.384305
C       1.819348      0.797418      0.123033
O       2.705044      0.883680      0.902052
H      -1.950410      1.207337     -0.441795
H      -3.081436     -0.175611     -0.530493
H      -2.349882      0.289200      1.029798
H       1.168760     -1.700549     -1.259356
H       1.892377     -1.402091      0.396672
H       1.638609      1.353792     -0.796634
