14
Extracted from Q-Chem output
C      -1.448164     -1.199413      0.111819
C      -1.160777      0.248144      0.391658
C       1.332092      0.196201     -0.381012
O       2.216128      1.178161     -0.886322
C       0.124486      0.903332      0.155945
O      -0.973305      1.110946     -0.720602
H      -2.492294     -1.322077     -0.181583
H      -1.279502     -1.799205      1.008875
H      -0.825104     -1.589072     -0.691600
H      -1.783776      0.683871      1.172074
H       1.802590     -0.369706      0.435481
H       1.032729     -0.506950     -1.164105
H       2.966300      0.741708     -1.291206
H       0.373960      1.770020      0.766115
