9
Extracted from Q-Chem output
O       2.105831      0.801515     -0.092755
C       0.969596      0.364245     -0.042838
C      -0.326296      0.940990      0.083378
N      -1.198307     -0.082975      0.077225
N      -0.676287     -1.261711     -0.035564
N       0.619597     -1.000039     -0.106812
H       1.263789     -1.766690     -0.201054
H      -0.629661      1.967589      0.170827
H      -2.201048     -0.028322      0.149273
