15
Extracted from Q-Chem output
N       2.739976      0.590073     -0.536265
C       1.513876      0.728536      0.086712
O       1.377510      1.357433      1.116237
N       0.475958      0.106025     -0.560110
C      -0.879287      0.332381     -0.161169
C      -1.281337     -0.211516      1.084547
O      -2.244488     -1.579822      0.339171
H       3.515545      0.851686      0.046858
H       2.895147     -0.216963     -1.114780
H       0.639222     -0.214636     -1.497573
H      -1.779185     -0.791006     -0.438729
H      -1.286113      1.310490     -0.409503
H      -2.060042      0.281002      1.654407
H      -0.597100     -0.819343      1.661111
H      -3.198865     -1.492828      0.455450
