11
Extracted from Q-Chem output
O      -0.632198      2.942143      0.650333
C      -0.476664      1.763535      0.450781
C      -0.782374     -1.991035     -0.603546
C       0.079252     -1.073563     -0.280180
C       0.974453     -0.185598      0.054827
N       0.744803      1.174466      0.314877
H      -1.006493     -2.212797     -1.642038
H      -1.309915     -2.562893      0.153179
H      -1.310105      1.047442      0.363199
H       2.008868     -0.489858      0.164286
H       1.540830      1.783689      0.405661
