12
Extracted from Q-Chem output
O       0.792094      2.157792      0.049243
C       0.572751      0.983575      0.160579
N       1.679884      0.085100      0.088276
C       1.798879     -1.223162      0.204015
C      -1.441963     -0.520412     -0.525946
O      -1.190395     -0.739412      0.846370
C      -0.846888      0.521084      0.317325
H       2.523288      0.626770     -0.081200
H       0.796261     -1.623959      0.405141
H      -0.813422     -1.081049     -1.211801
H      -2.486910     -0.426274     -0.801716
H      -1.473150      1.347550      0.638856
