17
Extracted from Q-Chem output
C      -1.368766      1.159858      0.362032
C      -1.238547     -0.321880      0.119085
C      -1.077093     -0.871052     -1.270037
C       0.055560     -0.963410     -0.289121
C       1.319142     -0.157487     -0.507626
C       2.007167      0.169210      0.741189
C       2.558396      0.427859      1.772453
H      -2.410027      1.473449      0.262062
H      -1.029180      1.425733      1.365022
H      -0.784757      1.744996     -0.350045
H      -1.843126     -0.927914      0.785202
H      -1.603290     -1.774954     -1.547312
H      -0.975027     -0.150882     -2.074418
H       0.242165     -1.942990      0.136371
H       1.096064      0.769663     -1.040622
H       2.000913     -0.720571     -1.151118
H       3.050405      0.660372      2.686883
