15
Extracted from Q-Chem output
C       1.992566     -0.365125      0.526638
C       0.909248      0.652102      0.330701
O       0.583117      0.995445     -1.020619
C      -0.373975      0.312417     -0.259363
C      -1.786361      0.797131      0.003768
O      -2.290018     -0.524451     -0.254526
C      -0.994262     -1.021822     -0.628283
H       1.951509     -0.772986      1.538840
H       1.883806     -1.184900     -0.184311
H       2.975377      0.086459      0.381884
H       0.939662      1.514300      0.995277
H      -2.014410      1.133598      1.018434
H      -2.146101      1.528974     -0.725557
H      -0.932578     -1.263626     -1.693482
H      -0.697578     -1.887517     -0.029402
