17
Extracted from Q-Chem output
C       2.154168      0.307043      0.068916
C       0.670797      0.101750     -0.008670
C      -0.100620     -1.121933      0.458780
C      -0.879190     -0.869584     -0.804738
C      -2.050230     -0.022967     -0.606876
C      -0.256471      1.046328      0.753419
O       0.189441     -0.070192     -1.365660
H       2.432292      1.253456     -0.399113
H       2.668452     -0.501814     -0.450512
H       2.485651      0.324717      1.108359
H      -0.937631      0.054002      1.121060
H       0.318477     -2.065700      0.797532
H      -1.071196     -1.782289     -1.385348
H      -2.760603     -0.287187      0.169770
H      -2.448705      0.508755     -1.467256
H      -0.610673      1.968097      0.305302
H       0.154064      1.237728      1.747120
