11
Extracted from Q-Chem output
N      -1.965379      0.215777     -0.156246
C      -0.581594     -0.061740     -0.074637
C       0.212694     -1.158592     -0.230321
C       1.547582     -0.575208      0.040549
N       1.449289      0.861610      0.341497
N       0.218206      1.050918      0.255284
H      -2.484598     -0.376232      0.476971
H      -2.313199      0.035252     -1.087933
H       2.049946     -1.040836      0.897175
H       2.249124     -0.681818     -0.794876
H      -0.162101      1.979609      0.422715
