10
Extracted from Q-Chem output
N       1.131662      1.513907     -0.127988
C       1.446833      0.322003      0.158469
C       0.447277     -0.730918      0.413235
C      -0.843848     -0.530023      0.379699
C      -2.123195     -0.334475      0.348257
H       1.963041      2.082252     -0.265254
H       2.487060     -0.013487      0.237643
H       0.815234     -1.725753      0.642692
H      -2.661822     -0.031301      1.238545
H      -2.681567     -0.451374     -0.573207
