10
Extracted from Q-Chem output
N       1.940177     -0.389585      0.481003
C       0.916709      0.437586      0.214625
C       0.204215      1.400746     -0.002270
O      -2.538382      0.569515     -0.024428
C      -1.809246     -0.365005      0.163647
N      -0.645318     -0.833995      0.304756
H       2.824728     -0.130245      0.078076
H       1.711272     -1.368020      0.410185
H      -0.493824      2.181232     -0.195316
H      -2.102617     -1.500804      0.322340
