13
Extracted from Q-Chem output
C      -1.578224     -0.159692      0.342569
C      -0.115188     -0.535565      0.187906
C       0.536308      0.002124     -1.105148
N       0.704879      0.042035      1.263211
C       1.622685      0.693999      0.700471
O       1.681951      0.742344     -0.645818
H      -1.965328     -0.523079      1.294531
H      -2.176298     -0.593731     -0.462041
H      -1.699132      0.925490      0.315924
H      -0.019513     -1.623669      0.246071
H       0.882024     -0.778810     -1.782013
H      -0.115045      0.687493     -1.652711
H       2.407567      1.242467      1.207720
