13
Extracted from Q-Chem output
C      -1.731807     -0.282850      0.376282
C      -0.267258     -0.490046      0.059057
C       0.252428      0.036274     -1.161441
N       0.540255      0.500116      0.836037
C       1.828446      0.603460      0.585750
O       2.414354      0.388852     -0.483417
H      -1.892563     -0.467615      1.438526
H      -2.356018     -0.963464     -0.204712
H      -2.024726      0.745217      0.160831
H       0.055356     -1.513885      0.260500
H       0.900180     -0.510191     -1.826894
H      -0.093298      1.011187     -1.482893
H       2.403373      0.957896      1.454296
