14
Extracted from Q-Chem output
C       1.752624     -0.690067     -0.957118
O       0.641528      0.199559     -0.767332
C      -0.556988     -0.489009     -0.007901
C      -0.451359      0.081926      1.310146
C      -1.563656      0.511124      0.436438
O      -1.594593      1.805265     -0.115053
H       1.476606     -1.419550     -1.715009
H       1.993378     -1.188332     -0.014898
H       2.596201     -0.098376     -1.305078
H      -0.711650     -1.469597     -0.440824
H       0.729262      0.678065      0.186419
H      -0.566274     -0.454876      2.241589
H      -2.574351      0.118668      0.548573
H      -1.148095      2.375326      0.514674
