15
Extracted from Q-Chem output
O      -1.649025      1.360051     -0.441168
C      -1.618614      0.014021     -0.090569
C      -0.282233     -0.649144     -0.247364
C       1.314353     -0.613235      1.643506
C       0.942310      0.468172      0.881689
O       0.566877      1.605636      1.161246
C       0.855823      0.027463     -0.732106
H      -1.023850      1.816923      0.148085
H      -1.975500     -0.160563      0.933410
H      -2.306414     -0.528178     -0.751453
H      -0.261852     -1.718074     -0.077085
H       1.464359     -0.489556      2.709690
H       1.677121     -1.516907      1.178509
H       0.697289      0.952365     -1.271204
H       1.702272     -0.565282     -1.052947
