12
Extracted from Q-Chem output
C       1.466194     -0.535746     -0.474615
C       0.544341     -0.825553      0.628021
C      -0.833651     -0.389663      0.329028
C      -0.911071      1.002225      1.001838
H       2.504581     -0.399491     -0.172188
H       1.155120      0.211906     -1.219827
H       1.435285     -1.521084     -0.978183
H      -0.700027      0.932806      2.068784
H      -1.575492     -1.035351      0.802579
H      -1.068451     -0.275827     -0.740742
H      -1.914438      1.406022      0.868921
H      -0.202830      1.703024      0.556559
