18
smiles: [C:1]([H:7])([H:8])([H:9])[H:12].[O:2]=[C:3]([C:4]([C:5]([H:13])([H:14])[H:15])([H:10])[H:11])[C:6]([H:16])([H:17])[H:18]
C        2.26590400       1.60039300      -0.98218000
O        0.88135000      -1.35137500       1.06328000
C        0.02386400      -0.56263900       0.75206900
C       -0.73721300      -0.70842000      -0.55104600
C       -1.89228000      -1.69723800      -0.37904500
C       -0.36062000       0.59111000       1.64449100
H        2.37833700       2.35503800      -0.20519700
H        3.02289000       1.75596400      -1.74943800
H        2.38774900       0.60988100      -0.54642300
H       -0.03953300      -1.07900000      -1.30351700
H       -1.11828700       0.26163200      -0.87986200
H        1.27571300       1.68132300      -1.42801200
H       -1.51452500      -2.67339900      -0.07302700
H       -2.60255200      -1.35687500       0.37795800
H       -2.43786400      -1.81795100      -1.31537800
H        0.11228200       0.49080600       2.61884500
H       -0.03433000       1.52478500       1.17835500
H       -1.44589000       0.65119800       1.75436200
