18
Extracted from Q-Chem output
C       2.077051     -0.152925     -0.368651
O       1.113203      0.275680      0.555747
C      -0.262489      0.097883      0.211000
C      -0.621760      0.906320     -1.035161
C      -0.590931     -1.381107      0.010285
C      -1.010781      0.640146      1.421113
H       3.048529      0.064484      0.074335
H       2.010637      0.378982     -1.324881
H       2.023331     -1.230277     -0.563148
H      -0.143252      0.509289     -1.932065
H      -1.700125      0.880217     -1.202177
H      -0.317931      1.947218     -0.910201
H      -0.117121     -1.789015     -0.884156
H      -0.261439     -1.961722      0.873953
H      -1.668387     -1.514338     -0.102707
H      -0.733380      0.080006      2.315254
H      -0.755227      1.688368      1.582781
H      -2.089927      0.560790      1.278678
