18
Extracted from Q-Chem output
C       2.034401      0.995184     -0.731595
O       1.011167     -0.838242      0.475250
C      -0.230939     -0.403683      0.304675
C      -0.348745      0.234527     -1.059016
C      -1.227876     -1.618003      0.207197
C      -0.713823      0.559895      1.400641
H       2.260949      1.222616      0.298343
H       2.061355      1.854701     -1.400443
H       2.533895      0.115147     -1.105149
H      -0.079773     -0.422517     -1.883864
H      -1.166547      0.919210     -1.296481
H       0.729182      0.877862     -0.910521
H      -0.873327     -2.328382     -0.538818
H      -1.212904     -2.105291      1.180865
H      -2.252238     -1.318767     -0.020898
H      -0.617205      0.066458      2.367928
H      -0.081333      1.451055      1.417360
H      -1.753025      0.873966      1.265938
