16
Extracted from Q-Chem output
C       1.475592      0.543256     -1.385985
N       1.363036      0.150256      0.010214
C       1.289427     -1.302652      0.277658
C       0.152134     -0.415364      0.419831
C      -1.118419     -0.149297      0.641171
O      -2.014832     -1.097261      1.063644
C      -1.743544      1.193440      0.483014
H       2.523271      0.507111     -1.687686
H       1.123539      1.569488     -1.497270
H       0.882720     -0.100645     -2.050295
H       1.315929     -1.965049     -0.585818
H       1.851537     -1.643612      1.140495
H      -1.557824     -1.936455      1.157815
H      -2.212915      1.500470      1.420033
H      -0.995479      1.934578      0.207077
H      -2.520629      1.166856     -0.284111
