16
Extracted from Q-Chem output
C      -1.101394      1.149803     -0.179907
N      -0.439298     -0.154508     -0.455012
C      -0.204837     -0.949370      0.809334
C       0.782861     -0.286569      1.837980
O       0.937157     -0.995179      2.824648
O       1.246074      0.823012      1.512775
C       0.811481      0.017127     -1.243959
H      -0.426593      1.720075      0.454508
H      -2.039177      0.958206      0.338265
H      -1.291197      1.654333     -1.126004
H      -1.079851     -0.702005     -1.024015
H       0.184962     -1.920240      0.504551
H      -1.177561     -1.089566      1.280211
H       1.499523      0.586358     -0.622763
H       0.574366      0.537519     -2.170613
H       1.219950     -0.968287     -1.460090
