12
smiles: [C:1]([N+:7]#[C-:6])([H:8])([H:9])[H:10].[N:2](=[C:3](\[C:4]#[N:5])[H:12])\[H:11]
C       -1.88476000       1.16851400       0.76348700
N        0.17688300      -0.93796300      -1.04824700
C        1.36553800      -0.89745700      -0.62968200
C        2.46704400      -1.64597100      -1.20870900
N        3.33156000      -2.24132300      -1.67279200
C        0.44044500       1.39910500       1.85623700
N       -0.60753000       1.29636600       1.36376900
H       -1.83364700       0.45510200      -0.05794700
H       -2.20897000       2.13507400       0.37995600
H       -2.60374000       0.81674100       1.50218700
H        0.07779100      -1.56326100      -1.84714500
H        1.61935000      -0.26775500       0.22080700
