12
Extracted from Q-Chem output
C      -1.688879      0.620126      0.320567
N      -0.103408     -0.355524     -0.770504
C       1.092629     -0.541771     -0.418344
C       2.048488     -1.227040     -1.252170
N       2.806421     -1.772575     -1.918718
C       0.591909      1.223661      2.587053
N       0.008136      0.882195      1.632329
H      -2.029002      0.370554      1.310379
H      -2.166186      0.055823     -0.466656
H      -1.535468      1.667845      0.120589
H      -0.353638     -0.727231     -1.685750
H       1.396989     -0.157313      0.557733
