10
Extracted from Q-Chem output
O      -0.120280      1.242478     -0.196377
C       0.745726      0.184305     -0.512633
C       0.735541     -1.155700      0.059751
O       0.254432     -0.866564     -1.262630
C      -1.284372      1.082323      0.453171
O      -1.721950      0.080607      0.926740
H       1.665083      0.637244     -0.868204
H       1.668357     -1.710909      0.091106
H      -0.030146     -1.432300      0.769617
H      -1.785949      2.058922      0.489498
