15
Extracted from Q-Chem output
C      -1.148750     -0.736963     -1.056614
C      -0.355789     -0.008133      0.019152
C      -1.109442      0.111775      1.335433
C       1.019330     -0.467286      0.151370
C       2.249727     -0.410015      0.061026
C       0.188777      1.360284     -0.467400
C       1.512785      1.202335     -0.454901
H      -0.577137     -0.816927     -1.980908
H      -2.048776     -0.157441     -1.265700
H      -1.440760     -1.737386     -0.728990
H      -1.413862     -0.867331      1.712249
H      -0.504898      0.613238      2.090592
H      -2.000269      0.716217      1.160737
H       3.266561     -0.728100      0.117050
H       2.389499      1.798773     -0.657641
