14
Extracted from Q-Chem output
O       2.397184     -0.155121     -0.290672
C       1.209844     -0.116197     -1.068370
C      -0.006112      0.099453     -0.239671
C      -0.461651     -0.786009      0.895800
N      -1.794007     -0.255821      1.228007
C      -0.831626      1.136378     -0.246001
O      -1.836687      1.072306      0.664980
H       2.451017      0.663749      0.206862
H       1.271342      0.654660     -1.846217
H       1.169384     -1.084721     -1.572254
H       0.205497     -0.708066      1.759734
H      -0.543771     -1.842710      0.631002
H      -2.474760     -0.749090      0.655688
H      -0.823915      2.037574     -0.843230
