18
Extracted from Q-Chem output
C       2.558428      0.679550     -0.493066
N       1.407080      0.663670      0.392878
C       0.459755     -0.335987      0.244940
O       1.072637     -1.555882      0.219268
C      -0.869888     -0.166679      0.200620
C      -1.828262     -1.321760      0.305469
C      -1.507009      1.190437      0.095274
H       3.233661      1.474889     -0.178142
H       2.291495      0.842728     -1.545573
H       3.092006     -0.265294     -0.417292
H       0.990841      1.567730      0.529822
H       0.448659     -2.205170     -0.108643
H      -2.636340     -1.081392      1.002872
H      -1.365366     -2.235601      0.685649
H      -2.301583     -1.558069     -0.654192
H      -2.363667      1.153878     -0.584124
H      -1.886702      1.548829      1.059120
H      -0.829207      1.950205     -0.298378
