18
Extracted from Q-Chem output
C       2.709284      0.662457     -0.065477
N       1.278812      0.660410      0.159251
C       0.473947     -0.332996     -0.185654
O       0.949832     -1.440519     -0.661480
C      -0.964687     -0.364173     -0.239730
C      -1.607451     -1.226971      0.841876
C      -1.688270      0.946334     -0.449283
H       3.255906      0.380074      0.836002
H       3.033898      1.652497     -0.386445
H       2.933209     -0.063292     -0.844715
H       0.852948      1.452522      0.608177
H      -0.201983     -1.494914     -1.000474
H      -1.719637     -0.685654      1.793567
H      -1.036969     -2.135502      1.042831
H      -2.608352     -1.534697      0.530379
H      -2.718964      0.758973     -0.758218
H      -1.749707      1.557575      0.466464
H      -1.225275      1.553958     -1.230569
