16
smiles: [C:1]([C:2]1([C:3]([H:10])([H:11])[H:12])[C:4]([H:14])=[C:5]([H:15])[O:6]1)([H:7])([H:8])[H:9].[H:13][H:16]
C       -0.88077100      -1.14720000       0.14317500
C       -0.41971000       0.26659900      -0.12384200
C       -1.55158100       1.24087100      -0.35184900
C        0.75375100       0.76742300       0.69538800
C        1.46155400       0.73452000      -0.42797600
O        0.49760100       0.28231800      -1.29322800
H       -1.52835600      -1.49623100      -0.66358200
H       -1.44587200      -1.18437000       1.07682700
H       -0.02531400      -1.81681300       0.22712400
H       -2.19973900       0.89196600      -1.15822500
H       -1.16146500       2.22456900      -0.61176400
H       -2.15232600       1.33168700       0.55548300
H        2.49401800      -1.78313400       0.91657300
H        0.91665500       1.02782500       1.72638900
H        2.46402400       0.94688600      -0.77493900
H        2.85477000      -2.43414000       0.93791600
