13
smiles: [C:2](=[O:3])=[C:4]1[C:5]([H:10])([H:11])[C:6]1([H:12])[H:13].[N:1]([H:7])([H:8])[H:9]
N        2.46763100      -1.30650000       0.13143600
C        0.50710300       1.46390600      -0.09434900
O        1.48422000       2.09493200      -0.12289700
C       -0.56863600       0.76732600      -0.06055600
C       -1.27627400      -0.48775300      -0.37762200
C       -1.99559000       0.64882600       0.29353300
H        2.07333000      -1.43864600      -0.79025800
H        3.06920500      -0.49485700       0.09151500
H        1.70584900      -1.08989900       0.75998600
H       -1.50106800      -0.68837600      -1.41900600
H       -1.03844600      -1.36119100       0.21891500
H       -2.24455900       0.54313000       1.34335000
H       -2.70617000       1.21872700      -0.29413900
