13
Extracted from Q-Chem output
C      -1.391612     -0.137657      0.399074
N      -0.250629     -0.036206     -0.501120
C       0.356221      1.176408     -0.592365
C       1.662706      0.177012      0.761154
O       1.705035      0.189036      1.910478
C       0.598578     -1.098490     -0.538274
H      -1.892830     -1.090606      0.242048
H      -1.061986     -0.069213      1.441073
H      -2.093162      0.666319      0.187347
H       1.083861      1.297629     -1.381265
H      -0.250502      2.041465     -0.352810
H       0.184643     -2.058685     -0.252559
H       1.329449     -1.106955     -1.333674
