13
Extracted from Q-Chem output
C       1.650621     -0.230265      0.545318
C       0.233789     -0.107766      0.121341
C      -1.041661     -0.840974      0.480332
N      -1.793213      0.236608     -0.245523
C      -0.524608      0.751875     -0.571266
O      -0.385061      1.842371     -1.338705
H       2.266525      0.549184      0.090679
H       1.758955     -0.137514      1.630256
H       2.081075     -1.192895      0.256080
H       0.549722      2.029009     -1.453190
H      -1.309449     -0.879977      1.538528
H      -1.170822     -1.826669      0.025986
H      -2.345339     -0.083612     -1.033678
