13
Extracted from Q-Chem output
C       1.633525     -0.118078      0.578625
C       0.316834     -0.106648     -0.129531
C      -0.956051     -0.881612      0.234402
N      -1.730985      0.376481     -0.032078
C      -0.564563      0.949796     -0.441509
O      -0.272077      1.885096     -1.272077
H       2.214219      0.768959      0.318574
H       1.510589     -0.130206      1.667125
H       2.230727     -0.989009      0.302287
H       0.439903      0.792846     -1.410179
H      -1.043125     -1.209817      1.271695
H      -1.239827     -1.684738     -0.447589
H      -2.558079      0.402157     -0.613139
