15
Extracted from Q-Chem output
C      -2.393216      0.104546     -0.159243
N      -0.969054     -0.053208      0.054808
C      -0.397787     -0.926719      0.893640
N       0.909483     -0.789024      0.785322
C       1.227544      0.185275     -0.134225
C       2.703717      0.238217     -0.186980
C       0.028569      0.654914     -0.595821
H      -2.646698     -0.132372     -1.192629
H      -2.932759     -0.572547      0.500060
H      -2.695340      1.127917      0.061110
H      -0.942808     -1.609939      1.523361
H       3.101250      1.198736      0.149113
H       2.040037     -0.981281      0.953550
H       3.097341      0.016166     -1.181661
H      -0.214721      1.411661     -1.321707
