11
Extracted from Q-Chem output
O      -1.396726      0.293691     -1.025079
C      -0.820807     -0.052278      0.489921
C       0.508825     -0.466748      0.103577
C       1.614111      0.445310      0.291159
O       2.789601      0.179913      0.177101
H      -2.029432     -0.370585     -1.332297
H      -1.515320     -0.794627      0.872567
H      -0.928056      0.914913      0.972908
H      -0.304307     -0.060999     -1.155682
H       0.739670     -1.526412      0.079605
H       1.305088      1.490845      0.537647
