11
Extracted from Q-Chem output
C      -1.211419     -0.269744     -0.378288
C      -0.367310      0.750833     -0.776692
C       1.333252      0.566930      0.158577
O       2.296657      1.165531      0.133701
C       0.826590     -1.066593      1.199321
N       1.499600     -1.633795      1.949865
H      -0.205541     -0.908618      0.593514
H      -1.351019     -1.136666     -1.012807
H      -1.989323     -0.076897      0.350531
H      -0.532914      1.758610     -0.408398
H       0.098142      0.710236     -1.756717
