13
Extracted from Q-Chem output
C       0.472332     -1.268233      0.033260
C       1.079615     -0.057978     -0.635104
C       0.521642      1.099845     -0.307220
C      -0.688609      0.975567      0.561133
N      -1.642585     -0.028940      0.039522
C      -0.798130     -0.909027      0.806410
H       1.186248     -1.760446      0.696604
H       0.171420     -2.028075     -0.704834
H       1.894940     -0.153034     -1.342254
H       0.856842      2.064952     -0.664671
H      -1.186179      1.872218      0.921852
H      -1.458894     -0.094643     -0.961994
H      -0.366957      0.427195      1.543273
