8
Extracted from Q-Chem output
C       1.919881      0.558621     -0.152684
C       0.838439      0.051808     -0.141778
C      -0.479132     -0.581155     -0.122350
C      -1.554824      0.327711     -0.528760
N      -2.412022      1.020739     -0.841115
H       2.880981      1.016661     -0.163419
H      -0.703358     -0.947872      0.882256
H      -0.489964     -1.446512     -0.789353
