8
Extracted from Q-Chem output
C       1.442713      0.341530     -0.284417
C       0.951485     -0.012905     -1.379816
C      -0.208626     -0.449307     -0.172266
C      -1.386160      0.375332     -0.393605
N      -2.319412      1.025864     -0.534871
H       1.945910      0.705656      0.588678
H      -0.018760     -0.481272      0.909115
H      -0.383606     -1.478957     -0.469937
