15
Extracted from Q-Chem output
O       2.263345      0.828332     -0.160832
C       1.077712      0.340318      0.167869
C       0.707315     -1.128017      0.356107
C      -0.660521     -0.826507     -0.285920
C      -1.297596      0.156195      0.718081
C      -0.173186      1.107679      0.328032
C      -0.070126      0.385065     -1.073692
H       1.462444      0.531425     -1.140845
H       0.695975     -1.477061      1.390625
H       1.345595     -1.760062     -0.258934
H      -1.228675     -1.634282     -0.736598
H      -2.259084      0.531334      0.366178
H      -1.377735     -0.158806      1.762105
H      -0.129901      2.183010      0.438169
H      -0.443228      0.922475     -1.937544
