19
smiles: [C:1]([H:8])([H:9])([H:10])[H:11].[C:2]1[C:3]([H:12])([H:13])[O:4][C@:5]([C:6]([H:15])([H:16])[H:17])([H:14])[C:7]1([H:18])[H:19]
C       -2.43085600       1.20026800      -0.20715900
C       -0.36120700      -1.60265900       1.05984100
C       -0.32921400      -1.82490300      -0.38648800
O        0.46907000      -0.86550100      -1.06167600
C        1.39672300      -0.37500600      -0.10516700
C        1.81987500       1.02711400      -0.47460400
C        0.63277300      -0.52429900       1.21693700
H       -3.33261600       1.44578500      -0.76616200
H       -1.66854300       0.83279800      -0.89240600
H       -2.06347900       2.09198500       0.29846500
H       -2.65801400       0.43200400       0.53022200
H        0.13964800      -2.83553400      -0.40957600
H       -1.29894800      -1.92481100      -0.87580200
H        2.27903900      -1.03451900      -0.08438900
H        2.30169900       1.03921200      -1.45260900
H        2.52727300       1.41695100       0.25992900
H        0.95073700       1.68690900      -0.51048500
H       -0.07606800       0.32166600       1.33096600
H        1.21784200      -0.54825000       2.13582000
