13
Extracted from Q-Chem output
C      -1.743113     -0.119607     -0.178772
C      -0.358825     -0.136177      0.429595
N       0.649170     -0.987015     -0.249501
C       1.654882      0.094967     -0.303079
C       0.559958      1.054850      0.151375
O       0.443598      2.237304      0.219050
H      -2.240839     -1.079394     -0.030840
H      -1.683144      0.071660     -1.250770
H      -2.349108      0.660815      0.284620
H      -0.413131     -0.306366      1.513697
H       0.935357     -1.799266      0.276712
H       2.078646      0.280959     -1.291906
H       2.466549      0.027271      0.429818
