14
Extracted from Q-Chem output
O      -0.534426      1.744610     -1.458419
C      -0.099483      1.349912     -0.376481
C      -1.098170      0.318203      0.371400
C      -0.669923     -0.900463     -0.310579
C       0.602739     -1.402911     -0.020740
C       1.142641      1.444853      0.215453
H      -0.881119      0.317412      1.439138
H      -2.130374      0.591063      0.174020
H      -0.585817     -2.003729      0.345425
H      -1.130774     -1.180369     -1.252152
H       1.094865     -2.104583     -0.683898
H       1.082857     -1.120253      0.904540
H       1.277704      1.242760      1.269758
H       1.934594      1.959235     -0.311380
