12
Extracted from Q-Chem output
N       0.319015      1.929660     -0.044945
C       0.477299      0.680031      0.119734
C       1.586923     -0.197741     -0.121412
O       1.241949     -1.415519      0.176231
N       0.031575     -1.600698      0.639823
C      -0.586905     -0.267559      0.666309
N      -1.838704     -0.193705     -0.036947
H      -0.763892     -0.019083      1.720094
H       1.168679      2.360771     -0.403944
H       2.563184     -0.061892     -0.555963
H      -1.718587     -0.440742     -1.010714
H      -2.512680     -0.829611      0.367747
