13
Extracted from Q-Chem output
C      -1.075762      0.999746      0.916486
C      -0.984383     -0.166736     -0.018459
O      -1.883908     -0.514300     -0.739640
C       0.330174     -0.967699     -0.059812
O       0.244063     -1.993028     -0.996553
C       1.460111     -0.063985     -0.316184
C       2.372253      0.684255     -0.515178
H      -2.119933      1.227284      1.119219
H      -0.608224      1.863154      0.438137
H      -0.534091      0.811398      1.844065
H       0.461395     -1.391888      0.947405
H      -0.631014     -1.901845     -1.403635
H       3.188779      1.341114     -0.702833
