14
Extracted from Q-Chem output
O       0.920857      1.937266      1.479377
C       1.418651      1.254899      0.593330
C       0.791763      0.875335     -0.622152
C       0.316925     -0.427987     -1.045170
C      -0.198487     -1.332872      0.096230
C      -1.172438     -0.206724      0.486835
N      -0.659210      0.649231     -0.632934
H       2.478343      0.929795      0.664330
H      -1.264156      1.157567     -1.260535
H       0.352094     -0.773565     -2.073887
H       0.558094     -1.596881      0.831797
H      -0.708999     -2.233289     -0.242941
H      -1.031941      0.287003      1.445767
H      -2.219109     -0.459218      0.326634
