14
Extracted from Q-Chem output
O       0.758720      1.913644      1.420076
C       1.277192      1.244137      0.550986
C       0.691897      0.869719     -0.714251
C       0.202239     -0.434462     -1.100563
C      -0.167744     -1.327968      0.100430
C      -1.196593     -0.259643      0.507927
N      -0.917150      0.493840     -0.756094
H       2.337321      0.924120      0.640138
H      -0.408931      1.543495     -0.999962
H       0.298237     -0.829004     -2.107369
H       0.643412     -1.545867      0.792956
H      -0.640031     -2.260754     -0.201126
H      -1.001595      0.320438      1.407239
H      -2.230365     -0.600789      0.496335
