12
Extracted from Q-Chem output
N       2.051180      0.038746      0.094074
C       0.641956      0.002790      0.151803
C      -0.227904      1.096742      0.094131
C      -1.491950      0.592945     -0.179461
C      -1.384266     -0.791121     -0.256723
N      -0.110051     -1.209454     -0.117090
H       2.454866     -0.838069      0.393648
H       2.362218      0.215958     -0.851986
H       0.060443      2.126283      0.239402
H      -2.406752      1.161985     -0.259622
H      -2.180724     -1.515967     -0.345949
H       0.255180     -0.839395      1.044509
