15
Extracted from Q-Chem output
C      -1.933905     -0.765471      0.494548
C      -1.056965      0.249488     -0.231027
C      -1.273805      1.671866      0.272653
O      -2.143527      1.991268      1.030352
C       0.372837     -0.060618     -0.163253
C       1.545729     -0.293131     -0.075733
C       2.969405     -0.589716      0.027360
H      -1.795776     -1.757669      0.066061
H      -2.983364     -0.484240      0.414088
H      -1.675044     -0.804407      1.552581
H      -0.555217      2.415560     -0.126614
H      -1.338836      0.284317     -1.293162
H       3.544500      0.020684     -0.670224
H       3.334163     -0.388770      1.035641
H       3.161829     -1.639008     -0.200922
