11
Extracted from Q-Chem output
N      -1.707785      0.131441     -0.046028
C      -0.275411      0.250602      0.180039
C       0.302178      1.452417      0.005438
O       1.665923      1.110869     -0.088766
C       1.859940     -0.233113     -0.066583
O       2.922475     -0.783082     -0.069994
N       0.596425     -0.836933     -0.018592
H      -1.933171     -0.314522     -0.939063
H      -2.225701     -0.342748      0.693636
H      -2.000117      1.115994     -0.087234
H       0.571173     -1.681114      0.531518
