11
Extracted from Q-Chem output
N      -1.755667      0.100987     -0.038237
C      -0.329141      0.010009     -0.190074
C       0.129249      1.259625     -0.193888
O       1.500105      1.166122     -0.003211
C       1.843638     -0.154347      0.161471
O       2.962012     -0.558156      0.270422
N       0.663554     -0.904138      0.158416
H      -2.332676     -0.323706     -0.757281
H      -2.120642     -0.114415      0.885680
H      -1.399197      1.320365     -0.113847
H       0.730951     -1.862470     -0.137624
