10
Extracted from Q-Chem output
O       2.265296      0.476639     -0.767182
C       1.100961     -0.108480     -0.396441
N       0.914132     -1.307181     -0.092892
N      -1.513728     -1.046924      0.148917
C      -1.313088      0.182343     -0.169089
C      -0.023755      0.745630     -0.154221
H       2.964054     -0.185810     -0.708636
H      -2.432810     -1.371331     -0.156902
H      -2.126262      0.841969     -0.489069
H       0.158219      1.751431      0.210342
