18
smiles: [C:1]([C:2](=[C:3]([H:11])[H:12])[H:10])([H:7])([H:8])[H:9].[C:4](=[C:5]([C:6]([H:16])([H:17])[H:18])[H:15])([H:13])[H:14]
C       -1.66318100       0.32119900       0.99906600
C       -1.62730600      -1.06389200       0.43668400
C       -1.90548900      -1.38256500      -0.81783400
C        2.10782600      -0.46091600       0.57918700
C        2.14375400       0.74049400       0.02427700
C        1.24131200       1.20862700      -1.07247400
H       -0.68420700       0.60909800       1.39120600
H       -1.95588100       1.05081700       0.24283200
H       -2.36895700       0.38699300       1.83119400
H       -1.34977700      -1.85532300       1.12919300
H       -1.86159900      -2.40740000      -1.16599400
H       -2.18698500      -0.62781200      -1.54518300
H        1.39134500      -1.21147300       0.26090500
H        2.79173000      -0.73919000       1.37167700
H        2.87984100       1.45892300       0.37812700
H        0.53758200       0.42968300      -1.36896300
H        0.66957900       2.08607400      -0.75905800
H        1.81845600       1.50437500      -1.95245200
