18
Extracted from Q-Chem output
C      -1.461330      0.717780      0.496136
C      -0.675097     -0.550678      0.631963
C      -1.051059     -1.659639     -0.187895
C       0.894367     -1.015583     -0.325947
C       1.205484      0.236279      0.274555
C       1.309230      1.475764     -0.559387
H      -1.041756      1.544484      1.067365
H      -1.560367      1.017055     -0.547920
H      -2.469115      0.486604      0.859134
H      -0.423600     -0.801556      1.655864
H      -0.951339     -2.673310      0.166486
H      -1.556747     -1.483682     -1.126605
H       0.842253     -1.048820     -1.407721
H       1.292412     -1.923413      0.108057
H       1.631820      0.235781      1.267694
H       0.491064      1.556754     -1.282576
H       1.281996      2.381351      0.050614
H       2.238765      1.509100     -1.144332
