16
Extracted from Q-Chem output
C      -1.071723     -0.818753      0.749793
C      -0.261588      0.245231      0.012846
C      -0.367529      0.076541     -1.501078
C       1.205150      0.228014      0.464941
O       1.748486     -1.030419      0.135452
C      -1.166476      2.594799      0.661944
N      -0.767361      1.541726      0.369607
H      -0.671455     -1.804482      0.517202
H      -1.019233     -0.663626      1.828148
H      -2.117377     -0.776736      0.444108
H      -1.411251      0.116637     -1.813587
H       0.054198     -0.885101     -1.789923
H       0.178567      0.868241     -2.015386
H       1.737369      1.042226     -0.041149
H       1.241240      0.411267      1.545426
H       2.660009     -1.063038      0.426529
