16
Extracted from Q-Chem output
C      -1.040057     -0.815362      0.774810
C      -0.235316      0.252588      0.054259
C      -0.316444      0.148658     -1.450256
C       1.218776      0.266400      0.582971
O       1.804509     -1.007386      0.419488
C      -0.448976      2.066752      0.409962
N      -1.536728      1.625007      0.511140
H      -0.519109     -1.764485      0.638568
H      -1.100481     -0.607775      1.842189
H      -2.048845     -0.895190      0.376870
H      -1.348348      0.218000     -1.789966
H       0.072357     -0.827478     -1.753233
H       0.264651      0.931346     -1.938128
H       1.791848      1.042019      0.074333
H       1.210330      0.488217      1.650190
H       2.221070     -1.052616     -0.441929
