14
Extracted from Q-Chem output
C      -0.720029     -1.203471      1.046152
C       0.042749      0.475227     -1.879120
C      -0.008266      1.151578     -0.522096
N       0.849586      0.598311      0.481008
C       0.647486     -0.574146      1.163743
O       1.527257     -1.047705      1.847246
O       0.679177     -0.507534     -2.124362
H      -0.740198     -2.086284      1.678422
H      -0.922510     -1.498370      0.014980
H      -1.502321     -0.512765      1.367624
H      -0.580050      0.966820     -2.656739
H      -1.054683      1.145371     -0.197915
H       0.235011      2.208038     -0.672626
H       1.809088      0.903753      0.497782
