14
Extracted from Q-Chem output
C      -0.898801     -1.044987      0.363117
C      -0.193007      0.038076     -1.056023
C      -0.018280      1.311653     -0.223568
N       0.919661      0.825781      0.773424
C       1.037120     -0.521709      0.582261
O       1.665834     -1.411136      0.985639
O       0.904465     -0.516011     -1.391973
H      -0.925076     -0.942110      1.451124
H      -0.741343     -2.080692      0.074943
H      -1.890325     -0.721081      0.031797
H      -1.030599      0.039638     -1.766192
H      -0.939386      1.678624      0.229614
H       0.429149      2.091408     -0.842683
H       1.828639      1.267258      0.814408
