11
Extracted from Q-Chem output
O       1.657851     -1.118381     -0.522496
C       1.654076     -0.363789      0.407162
C       0.520244      0.578134      0.754902
N      -0.425372      0.801602     -0.302496
C      -1.163219     -0.156832     -0.645428
O      -2.038945     -0.052395     -1.647335
H       2.508343     -0.327090      1.115186
H       0.064252      0.161904      1.667255
H       0.964129      1.529975      1.059273
H      -1.935873      0.832862     -2.020380
H      -1.198175     -1.147505     -0.188981
