11
Extracted from Q-Chem output
O       2.105791     -0.811184     -0.720016
C       1.776520     -0.200648      0.260082
C       0.366269      0.233616      0.534410
N      -0.505828     -0.182380     -0.522933
C      -1.831039      0.072943     -0.491165
O      -2.387655      0.664803      0.404959
H       2.514567      0.081781      1.034067
H       0.056484     -0.179499      1.502147
H       0.358472      1.322947      0.664824
H      -0.090454     -0.685330     -1.290581
H      -2.363127     -0.317048     -1.375793
