11
Extracted from Q-Chem output
O       1.329347     -1.489048     -0.257347
C       1.508341     -0.511849      0.411641
C       0.507711      0.603888      0.604002
N      -0.652048      0.550761     -0.227954
C      -1.389360     -0.463949     -0.573352
O      -2.288419     -0.046855     -1.374564
H       2.454521     -0.369869      0.973494
H       0.257952      0.609262      1.675644
H       1.032218      1.547298      0.426829
H      -1.569653      1.008728     -1.071246
H      -1.298405     -1.500953     -0.263009
