11
Extracted from Q-Chem output
C       1.403879     -0.609517     -0.418092
N       0.515992      0.308346      0.559862
C      -0.706786      0.775899     -0.046903
C      -1.725459     -0.280209     -0.126208
N      -2.529233     -1.096933     -0.154407
H       0.710066     -1.204933     -1.014129
H       1.962682     -1.256652      0.257408
H       1.428241      0.735463      0.103692
H       0.436240      0.016918      1.525684
H      -1.123447      1.624769      0.497777
H      -0.459466      1.098134     -1.062864
