14
Extracted from Q-Chem output
C      -1.620928      0.285780     -0.606392
C      -0.176814      0.305515      1.032170
C      -0.040832     -1.209714      1.006402
N       0.960672     -0.158825      0.655067
C       1.782638      0.080854     -0.498286
H      -2.473618      0.705332     -0.072217
H      -1.086871      1.079297     -1.131433
H      -2.002923     -0.397035     -1.374397
H      -0.559771      1.244595      1.397677
H      -1.057603     -0.736840      0.021514
H       0.243390     -1.664790      1.958426
H       2.000598      1.145768     -0.586891
H       2.713315     -0.476676     -0.410781
H       1.245702     -0.260882     -1.389700
