12
Extracted from Q-Chem output
C      -1.570225      1.421031     -0.260711
C      -0.603771      0.817538      0.707743
N       1.612008     -2.213843     -1.534503
C       1.663233     -1.688244     -0.382621
C       1.487595     -0.278535     -0.053566
N       0.437599      0.206410      0.334126
H      -1.194100      1.338459     -1.279649
H      -2.539705      0.919628     -0.208977
H      -1.734282      2.476567     -0.032369
H      -0.777777      0.891425      1.776412
H       1.392660     -1.518002     -2.247002
H       1.931292     -2.318752      0.469945
