12
Extracted from Q-Chem output
C      -1.214389      1.003917     -0.525975
C      -0.272947      0.060590      0.133783
N       0.093219     -1.117562     -0.585917
C       1.487625     -1.307428     -0.121788
C       1.670353     -0.025150      0.250649
N       1.250671      1.107690      0.344085
H      -0.810905      1.364350     -1.471578
H      -2.135325      0.445237     -0.724829
H      -1.438594      1.850434      0.117433
H      -0.458327     -0.155631      1.182024
H       0.058598     -0.948396     -1.587669
H       1.874548     -2.224367      0.278610
