15
Extracted from Q-Chem output
C       1.644137     -0.568253      0.142172
C       0.434696      0.220454      0.594349
C      -0.075455      1.336412     -0.311447
O      -0.504053      0.727546     -1.525795
C      -1.405636      0.736288     -0.422585
C      -0.992782     -0.440042      0.457024
O      -1.097712     -1.714137     -0.100174
H       2.558602      0.015765      0.263119
H       1.562555     -0.844086     -0.910299
H       1.745135     -1.485817      0.723742
H       0.564944      0.583684      1.616305
H       0.219110      2.376454     -0.361466
H      -2.379282      1.182076     -0.578600
H      -1.517533     -0.461659      1.411897
H      -0.756725     -1.664685     -0.998240
