13
Extracted from Q-Chem output
C      -1.759129      0.102798      0.139712
N      -0.325168      0.037881      0.012322
C       0.519479     -1.101687      0.403732
C       1.937243     -0.740604      0.115271
C       1.828299      0.546813     -0.405207
C       0.489104      0.962916     -0.447097
H      -2.056230      0.046727      1.189381
H      -2.226725     -0.725344     -0.396563
H      -2.127936      1.038953     -0.277170
H       0.217976     -1.992685     -0.156390
H       0.376867     -1.317175      1.467547
H       2.643031      1.173109     -0.744154
H       0.082764      1.906224     -0.799907
