13
Extracted from Q-Chem output
C      -1.786694      0.105675      0.056903
N      -0.355018     -0.010553     -0.097962
C       0.417220     -1.145319      0.153947
C       1.821172     -0.887893     -0.043045
C       1.800595      0.533329     -0.283078
C       0.515645      0.996229     -0.351767
H      -2.061964      0.400635      1.072464
H      -2.252564     -0.853708     -0.165999
H      -2.175911      0.843612     -0.643814
H      -0.068477     -2.113289      0.178760
H       1.097045     -1.080944      1.163286
H       2.677221      1.143710     -0.443245
H       0.142366      1.993913     -0.544811
