8
smiles: [C:4](#[N:5])[H:6].[O:1]=[C:2]=[C:3]([H:7])[H:8]
O       -1.63849900       0.62453900       0.43645900
C       -1.14311100      -0.40813900       0.28535900
C       -0.58245400      -1.57674100       0.11357900
C        1.38354400       1.78648900      -0.26541600
N        1.94088400       0.78946200      -0.32274900
H        0.86271000       2.71767100      -0.21184500
H        0.47965100      -1.63144700      -0.06619900
H       -1.19064900      -2.46655600       0.15374200
