8
Extracted from Q-Chem output
O      -1.980533      0.703589     -0.686892
C      -1.205535      0.258422      0.031012
C      -0.060318     -0.692189      0.073904
C       0.954680      0.469189      0.039881
N       2.047075      0.522805     -0.433996
H       0.304425      1.296240      0.634575
H      -0.089484     -1.453847     -0.713825
H       0.042859     -1.127937      1.067092
