14
Extracted from Q-Chem output
C      -1.481573      0.985603     -0.237634
C      -1.721175     -0.509747     -0.324638
C       1.696347     -0.219669      0.802174
N       2.607344     -0.792051     -0.129911
C       0.722557      0.601000      0.495446
N      -0.154644      1.402368      0.216141
H      -1.633037      1.461718     -1.209671
H      -2.197323      1.454298      0.442058
H      -2.737457     -0.704524     -0.671318
H      -1.596314     -0.988706      0.648249
H      -1.026899     -0.985344     -1.020240
H       1.778845     -0.558953      1.827280
H       2.411437     -0.496717     -1.075291
H       3.563223     -0.545453      0.089717
