14
Extracted from Q-Chem output
C       1.801597      0.077669     -0.346297
N       1.036066     -1.108945      0.067449
C       0.522983     -0.190664     -1.043301
C      -0.609531      0.592364     -0.456839
C      -1.835752     -0.026972      0.059578
N      -0.857313      0.522325      1.008114
H       2.742682     -0.134053     -0.843705
H       1.884452      0.793921      0.472446
H       0.584551     -1.000564      0.976014
H       1.354590     -2.029254     -0.185267
H      -0.724667      1.569072     -0.917735
H      -1.917938     -1.109475      0.066287
H      -2.781137      0.491392     -0.055569
H      -1.171332      1.403633      1.390854
