14
Extracted from Q-Chem output
C       1.851260      0.013039     -0.250498
N       1.237114     -1.211176      0.266655
C       0.605362     -0.212624     -0.999668
C      -0.577454      0.532429     -0.465413
C      -1.774790     -0.100315      0.106792
N      -0.824057      0.595388      0.981119
H       2.812702     -0.135897     -0.731317
H       1.848904      0.804580      0.494546
H       0.626339     -0.973185      1.049925
H       0.694351     -1.543466     -0.705292
H      -0.747374      1.442805     -1.035599
H      -1.804755     -1.177938      0.232774
H      -2.741503      0.356415     -0.071404
H      -1.176262      1.496318      1.274599
