10
Extracted from Q-Chem output
O      -1.642192     -0.944075     -0.516756
C      -0.756893     -0.398797      0.368128
C      -0.068024      1.222651      0.076953
N       0.794791      1.252089     -0.850056
C       1.287803      0.137537     -0.012923
N       0.499393     -0.934419      0.213117
H      -2.525218     -0.733547     -0.206349
H      -0.595631      2.071753      0.511560
H       2.296191      0.223079      0.370204
H       0.719351     -1.901556      0.043221
