14
Extracted from Q-Chem output
C       2.042763      0.544137     -0.367807
O       0.659670      0.730087     -0.097962
C       0.096417     -0.185617      0.700260
C      -1.326658     -0.148307      0.964060
C      -2.257622      0.225809     -0.053539
O      -3.445454      0.429270      0.106353
H       2.372448      1.423905     -0.912810
H       2.190747     -0.348814     -0.983046
H       2.610795      0.448791      0.561784
H       0.700627     -0.541261      1.536165
H       0.410571     -1.405644     -0.106140
H      -1.648109     -0.281421      1.987143
H      -0.530926     -1.269356      0.227850
H      -1.819274      0.306644     -1.076330
