16
Extracted from Q-Chem output
C       1.387651     -0.503389      1.098291
C       0.422517      0.007195      0.088874
C       0.628507      0.784881     -1.158965
C      -0.245122      1.323653     -0.085129
C      -1.159348      0.208157      0.230033
N      -1.989486     -0.483194     -0.711515
C      -1.011746     -1.502524     -0.628339
H       0.942398     -0.511194      2.095482
H       2.283459      0.120912      1.128793
H       1.689796     -1.523137      0.853657
H       1.595860      1.267020     -1.252620
H       0.215364      0.421957     -2.096771
H      -0.137698      2.215654      0.510118
H      -1.511091      0.153114      1.254596
H      -1.965191     -0.032884     -1.619713
H      -1.158628     -1.958502      0.369806
