19
Extracted from Q-Chem output
C      -1.770884     -1.094305     -0.373086
C      -0.677078     -0.054350     -0.149031
C      -1.229668      1.193998      0.533406
C       0.441812     -0.638915      0.696508
O       1.106168     -1.691966     -0.039721
C       1.790254     -0.022979      0.886878
C       2.204662      0.941640     -0.148686
H      -2.570730     -0.688738     -0.995909
H      -1.374703     -1.983254     -0.864616
H      -2.214713     -1.402621      0.578271
H      -0.268351      0.224120     -1.124055
H      -1.625036      0.951732      1.524098
H      -2.044677      1.625681     -0.049909
H      -0.466052      1.963910      0.659925
H       0.016923     -1.029162      1.628352
H       1.630896     -2.200943      0.587021
H       1.631123      1.000513     -1.079219
H       3.272043      0.876249     -0.361588
H       2.081587      1.896689      0.389356
