13
Extracted from Q-Chem output
N       2.417673     -0.766981      1.580903
C       1.611967     -0.144928      1.052009
C       0.577316      0.632721      0.355590
C       0.406703      0.446307     -1.159294
C      -1.130681      0.278975     -0.999211
C      -1.235981     -0.914201     -0.126277
N      -0.789389      0.222957      0.667227
H       0.703124      1.684821      0.605606
H       0.918061     -0.430731     -1.564135
H       0.706982      1.326657     -1.721641
H      -1.338551      0.631383      1.404299
H      -0.531149     -1.749244     -0.140058
H      -2.241006     -1.214593      0.152154
