16
smiles: [C:1]([C:2]([C:3]([H:12])([H:13])[H:14])([C:6]#[N:7])[H:11])([H:8])([H:9])[H:10].[C:4]([O:5][H:16])[H:15]
C       -2.21837900      -0.50445600       0.08639700
C       -0.78402900      -0.01683600      -0.13178900
C       -0.55247600       1.38497800       0.43712700
C        2.69861900       0.11831300      -0.96284300
O        3.24536900      -0.87256700      -0.31671300
C        0.16970400      -0.96731900       0.45257300
N        0.90944800      -1.70831000       0.92206300
H       -2.91676000       0.18339600      -0.39225100
H       -2.45266400      -0.54670300       1.15123700
H       -2.36766700      -1.49828900      -0.33539900
H       -0.57696900       0.00016900      -1.20607000
H       -1.23139800       2.09195600      -0.04167700
H       -0.74135000       1.40076300       1.51162700
H        0.47102000       1.71785500       0.26531300
H        3.56059000       0.54891100      -1.52131000
H        2.56531700      -1.31452700       0.20691100
