16
Extracted from Q-Chem output
C       2.399652      0.874122      1.022525
C       1.130345      0.470579      0.365997
C      -1.176420     -1.329989     -1.264591
C      -1.573917     -0.006073     -0.590453
C      -1.154891      0.111450      0.820110
O       0.088811      0.332397      1.130327
H       2.556334      1.960748      1.026448
H       3.256795      0.426658      0.514937
H       2.412369      0.537505      2.060833
H       0.999266      0.415293     -0.705901
H      -1.398739     -1.307169     -2.333310
H      -1.722684     -2.161717     -0.818399
H      -2.657767      0.115171     -0.639873
H      -1.139767      0.832481     -1.160992
H      -0.111120     -1.538136     -1.148655
H      -1.798263      0.033859      1.681385
