8
Extracted from Q-Chem output
O       1.247307      1.207166      0.113704
C      -1.423511      0.586027     -0.248801
C      -0.628121     -0.436973     -0.084611
N       0.526378     -0.987911     -0.062053
C       1.486506      0.025790      0.028384
H      -2.101618      1.027770      0.472463
H      -1.633200     -1.018386     -0.222178
H       2.512637     -0.362390      0.006552
