13
Extracted from Q-Chem output
C      -2.008130      0.302327     -0.837631
C      -0.886591      0.084196      0.114186
O      -1.270956      0.106074      1.411199
C       0.372876     -0.119034     -0.256026
O       1.319301     -0.333510      0.739522
C       2.619949     -0.314279      0.407256
O       3.482035     -0.486737      1.205759
H      -2.472205      1.273054     -0.653306
H      -1.659204      0.267633     -1.868466
H      -2.772273     -0.464103     -0.695623
H       0.706133     -0.152606     -1.283066
H      -0.501805     -0.046130      1.970931
H       2.789148     -0.127174     -0.666717
