13
Extracted from Q-Chem output
C      -1.736042     -0.067341     -0.650362
C      -0.597566      0.318255      0.198557
O      -0.732304      0.294016      1.467491
C       0.739177      0.565729     -0.228433
O       1.565757      0.896539      0.832531
C       1.665042     -0.696476      0.090161
O       1.347943     -1.669665      0.722217
H      -2.659666      0.380686     -0.285264
H      -1.563001      0.200229     -1.690412
H      -1.840370     -1.155335     -0.577607
H       0.873781      1.044521     -1.198024
H       0.207734      0.540622      1.774842
H       2.584775     -0.576391     -0.489188
