16
Extracted from Q-Chem output
C      -1.222568     -0.248638      1.376007
C      -0.360732      0.354515      0.353685
C       0.493045     -1.032562     -1.035499
C      -0.492754      1.473452     -0.590743
O       0.783357      1.457472     -1.085135
C       1.012357      0.068990      0.081072
N       2.042832     -0.130176      0.798633
H      -1.070177      0.331395      2.294123
H      -2.279606     -0.222709      1.113952
H      -0.897850     -1.263703      1.602908
H       0.367695     -1.985653     -0.524752
H      -0.369081     -0.799583     -1.656587
H       1.369571     -1.042072     -1.679620
H      -0.699409      2.346927      0.068639
H      -1.329510      1.415321     -1.305956
H       2.762412     -0.654118      0.314255
