13
Extracted from Q-Chem output
N       2.066896      0.045445      0.944118
C       0.855803      0.151885      0.433001
C       0.115146     -1.168954      0.075693
C      -1.087673     -0.386572     -0.085233
C      -0.798873      0.777419     -0.946593
O       0.587714      0.933517     -0.810497
H       2.297920      0.897999      1.448190
H       0.573671     -1.560471     -0.837131
H       0.098962     -1.900273      0.877268
H       0.068782      0.675812      1.131016
H      -2.053033     -0.588807      0.364984
H      -1.382484      1.664742     -0.673786
H      -1.014392      0.537417     -1.998630
