15
Extracted from Q-Chem output
C       0.660554      0.905889      0.524902
C       1.648514      0.090253     -1.003043
C       0.415283     -0.966216      0.364259
O      -0.730381     -0.972414      1.107297
C      -1.585613     -0.004018      0.452635
C      -0.560012      0.684156     -0.421977
C       0.240328     -0.499753     -1.028162
H       0.479304      0.916425      1.601027
H       1.307936      1.733757      0.267760
H       2.363195     -0.717164     -0.753006
H       1.132597     -1.707391      0.692853
H      -2.033952      0.634257      1.214138
H      -2.370688     -0.528667     -0.098782
H      -0.888866      1.507569     -1.050429
H      -0.113748     -1.141444     -1.837469
