12
Extracted from Q-Chem output
N      -0.846527     -1.394911      0.394923
C      -0.967079     -0.079836      0.674350
O      -2.002279      0.452714      1.006229
C       0.308741      0.746259      0.603277
O       1.416403      0.062359     -0.018506
C       1.587279      0.022479     -1.317956
O       0.610793      0.692369     -1.913658
H       0.034801     -1.804633      0.146505
H      -1.666462     -1.971100      0.455170
H       0.081892      1.683388      0.102539
H       0.634713      0.950545      1.621881
H       0.772294      0.638929     -2.859187
