15
Extracted from Q-Chem output
O       2.312799     -0.592818     -0.992634
C       1.339955     -0.368033     -0.057165
C       0.698002      1.024257      0.014679
C      -0.605646      0.369290     -0.442358
C      -1.678986      0.080608      0.574329
C      -0.900943     -1.132357      1.118045
O       0.051530     -0.965063     -0.432718
H       2.092284     -0.147662     -1.815180
H       1.662209     -0.809844      0.881317
H       0.664602      1.445188      1.016350
H       1.126094      1.748500     -0.677961
H      -0.937423      0.635032     -1.446731
H      -1.812836      0.877252      1.309257
H      -2.641503     -0.116331      0.091281
H      -1.419369     -2.053816      0.822940
