17
smiles: [C:1](=[C:2]([C:3](/[C:4](=[C:5](\[C:6](=[O:7])[H:17])[H:15])[H:14])([H:12])[H:13])[H:11])([H:8])[H:10].[H:9][H:16]
C       -2.09909200       0.41342000       0.81103700
C       -1.47757300       0.89337000      -0.25369800
C       -0.05823000       1.39938600      -0.23980600
C        0.81357900       0.52938600      -1.09414200
C        1.68979300      -0.39314400      -0.69096300
C        2.00004900      -0.75707500       0.70504700
O        1.41942600      -0.37542400       1.69174800
H       -1.60329400       0.35922000       1.77391700
H       -0.83139600      -2.24390200      -0.00124100
H       -3.11929300       0.05364100       0.75299100
H       -1.99353900       0.92046900      -1.21082800
H       -0.03685600       2.41346100      -0.65272100
H        0.31084000       1.43033500       0.78204700
H        0.69800000       0.66186000      -2.16809800
H        2.25172500      -0.94205600      -1.43990000
H       -0.71231500      -2.96757200      -0.13014800
H        2.85255900      -1.45891300       0.80977200
