12
Extracted from Q-Chem output
O       0.755128      2.315840      0.368649
C       0.392760      1.175251      0.206141
N       1.164698      0.105749     -0.097443
C       0.480534     -1.122637     -0.429743
C      -0.989390     -1.090757     -0.003290
O      -1.074841     -0.423956      1.216076
C      -1.033174      0.697449      0.354171
H       2.165486      0.203180     -0.113323
H       0.891379     -1.982437      0.114646
H       0.535695     -1.346044     -1.497517
H      -1.436701      0.213559     -0.660607
H      -1.797379      1.432763      0.586295
