12
Extracted from Q-Chem output
N       0.183157     -1.678946     -0.276913
C      -1.034309      0.995024      0.303595
O      -1.983069      1.532212      0.774705
C       0.420168      1.069746      0.724715
O       1.113584      0.445999     -0.335361
C       0.194033     -0.409465     -0.944141
O      -1.085029      0.177569     -0.776694
H      -0.547294     -2.275672     -0.641598
H       1.076133     -2.141727     -0.380750
H       0.746327      2.103732      0.820448
H       0.551529      0.547626      1.676604
H       0.411464     -0.432500     -2.015713
