11
Extracted from Q-Chem output
N       2.602421     -0.811702      0.785960
C       1.591050     -0.626250      0.276942
C       0.306717     -0.377009     -0.352325
C      -0.958556     -0.513458      0.519423
O      -1.396749      0.796042      0.146804
C      -0.149103      1.090251     -0.487425
H       0.246540     -0.932505     -1.286689
H      -0.752286     -0.590903      1.590331
H      -1.665107     -1.288538      0.219381
H       0.452404      1.794444      0.093432
H      -0.277330      1.459629     -1.505834
