11
Extracted from Q-Chem output
N       1.859509     -0.741142      1.994311
C       1.283259     -0.578908      1.015169
C       0.555431     -0.350406     -0.232485
C      -0.965865     -0.489705     -0.078358
O      -1.316206      0.915245     -0.098469
C       0.417681      1.108817     -0.664712
H       0.991562     -0.980393     -1.009477
H      -1.293620     -0.913472      0.867139
H      -1.436831     -1.020346     -0.907088
H       0.834857      1.819333      0.049467
H      -0.921962      1.238237     -1.048422
