9
Extracted from Q-Chem output
N      -1.849021      0.351198      0.506105
C      -0.920033     -0.614870      0.689502
O      -1.169109     -1.779908      0.885065
C       0.463318     -0.134432      0.634276
C       1.613536      0.217302      0.596355
C       2.977815      0.825696      0.513295
N       3.239805     -0.317930      0.745235
H      -1.591498      1.306135      0.340473
H      -2.818884      0.089332      0.527526
