12
Extracted from Q-Chem output
N       2.885864      1.228003      0.284537
C       2.007871      0.492396      0.326902
C       0.915487     -0.488091      0.334899
O       0.030183     -0.360207      1.442657
C      -1.091169     -0.225857      0.551136
C      -1.245633      1.071473     -0.075829
C      -0.209377     -0.303693     -0.687444
H       1.348163     -1.490828      0.281215
H      -1.908711     -0.911269      0.739262
H      -2.087485      0.973410     -0.777538
H      -0.186135      0.867317     -0.985649
H      -0.412136     -0.960529     -1.520567
