12
Extracted from Q-Chem output
C      -1.057330     -0.987581     -0.073360
C      -0.074357      0.044194      0.369905
C      -0.483887      1.437571      0.783508
O      -0.048425      0.510731      1.726920
C       1.207277      0.225606     -0.148171
O       1.627379     -0.220053     -1.328617
H      -0.679764     -2.000031      0.088687
H      -1.975535     -0.852813      0.493693
H      -1.306443     -0.859503     -1.130147
H       0.232027      2.275026      0.671706
H       0.931948     -0.719072     -1.769560
H       1.951633      0.765960      0.417184
