12
Extracted from Q-Chem output
C      -0.482678     -1.592288     -0.507799
C       0.547204      0.805874      0.400142
C      -0.449825      1.755674      0.012870
O       0.763368      2.114728      0.719521
C       1.179357     -0.338013      0.561208
O       0.761398     -1.561796      0.148540
H      -0.677091     -2.631290     -0.765132
H      -1.280970     -1.222620      0.145498
H      -0.462136     -0.987252     -1.421109
H      -0.496005      2.109913     -1.012482
H      -1.359981      1.857630      0.596034
H       2.134419     -0.371433      1.067569
