12
Extracted from Q-Chem output
C      -0.730891     -1.436627     -0.492587
C       0.204688      0.383705      0.639332
C      -0.393663      1.627361      0.169211
O       0.148088      1.508167      1.475889
C       1.391015     -0.226392      0.202026
O       1.253063     -1.242879     -0.501005
H      -0.825794     -2.037091      0.400105
H      -1.512950     -0.702672     -0.630850
H      -0.505046     -1.989211     -1.394525
H       0.152478      2.295523     -0.492012
H      -1.478527      1.695016      0.111487
H       2.396012      0.100609      0.481674
