15
Extracted from Q-Chem output
C      -0.371585      1.887173      0.320937
C      -0.282279      0.482957      0.856137
C      -1.019756     -1.792540     -0.143041
N      -0.311252     -0.525156     -0.280723
C       0.940763     -0.280486      0.456436
C       2.008410      0.255002     -0.374362
N       2.860566      0.717463     -0.990365
H       0.098828      2.560261      1.039824
H      -1.415367      2.194415      0.236036
H       0.119345      2.061790     -0.653084
H      -0.528718     -2.573394     -0.726055
H      -1.032371     -2.048465      0.913403
H      -2.045577     -1.656979     -0.483515
H      -0.268933     -0.174998     -1.236086
H       1.274817     -1.106190      1.078243
