11
Extracted from Q-Chem output
N       2.210806     -0.951492      1.149926
C       1.387461     -0.771076      0.372747
C       0.354904     -0.517106     -0.629545
C      -1.448242      0.239309      1.574984
O      -1.137832      1.083254      0.655712
C      -0.291100      0.851740     -0.507850
H       0.823826     -0.555923     -1.615390
H      -0.945726     -0.736949      1.354547
H      -0.383099     -1.320525     -0.596530
H       0.463091      1.636172     -0.464919
H      -0.936324      1.030205     -1.367362
