12
Extracted from Q-Chem output
O       2.589120     -1.238215      0.031301
C       1.429653     -0.971536     -0.053288
C       0.914921      0.445966      0.201981
O       1.545939      1.403029      0.498366
N      -0.541880      0.468963      0.022492
C      -0.880665      0.572841     -1.250497
C      -1.180582      0.040290      1.096539
H       0.641226     -1.700799     -0.315304
H      -0.165193      1.011656     -1.925976
H      -1.884719      0.321193     -1.556591
H      -0.670632      0.105772      2.043300
H      -2.213677     -0.262332      1.016934
