12
Extracted from Q-Chem output
O       2.940605     -0.309063     -0.647012
C       1.785589     -0.585323     -0.536097
C       0.919288     -0.047352      0.602639
O       1.326179      0.316944      1.664403
N      -0.445892     -0.032915      0.269169
C      -0.918707      0.056942     -1.031799
C      -1.404116      0.506588      1.028766
H       1.270310     -1.292708     -1.214438
H      -1.055044     -0.835107     -1.630594
H      -1.271908      1.018022     -1.367035
H      -1.163555      1.294594      1.734154
H      -2.399236      0.106205      0.937103
