15
Extracted from Q-Chem output
C       0.830271      0.975285      0.327745
C       1.554900     -0.269699     -0.234891
C      -0.370849     -1.848956      0.180616
O      -1.320899     -1.300602      0.862606
C      -1.618988      0.115062      0.538281
C      -0.485346      0.537958     -0.357120
C       0.193248     -0.804486     -0.743436
H       0.761867      0.984970      1.417504
H       1.227313      1.935211      0.000451
H       2.248505     -0.042020     -1.042870
H       2.061102     -0.907603      0.489943
H      -1.676299      0.640292      1.491156
H      -2.596793      0.122850      0.056066
H      -0.809503      1.174688     -1.177427
H       0.161130     -1.163215     -1.772733
