15
Extracted from Q-Chem output
C       0.780697      1.035037      0.259732
C       1.378403     -0.273688     -0.225803
C       0.080679     -1.600771      0.131953
O      -0.792041     -1.130232      1.071026
C      -1.509142      0.022756      0.593721
C      -0.559488      0.629923     -0.407961
C       0.148962     -0.615486     -1.006541
H       0.760413      1.199819      1.339693
H       1.244493      1.896309     -0.222185
H       2.401147     -0.463081     -0.536902
H       1.263648     -1.389571      0.563820
H      -1.720937      0.664329      1.450411
H      -2.453451     -0.297418      0.140695
H      -1.005685      1.350719     -1.088547
H       0.092135     -0.931165     -2.040121
