15
Extracted from Q-Chem output
C      -1.358258     -1.378790     -0.655715
C      -0.491861     -0.873614      0.494089
C       0.900463      1.138788      0.138740
C       0.462187      2.449410      0.521613
O       1.745953      2.092421     -0.119440
C       0.785817     -0.211207      0.010028
C       1.907318     -0.819001     -0.587381
H      -2.243263     -1.899578     -0.285803
H      -0.797077     -2.072716     -1.285064
H      -1.689223     -0.552784     -1.289227
H      -1.069358     -0.179616      1.113914
H      -0.219237     -1.710022      1.143131
H      -0.211332      3.007510     -0.118203
H       0.557495      2.775393      1.550850
H       1.710795     -1.908243     -0.643644
