15
Extracted from Q-Chem output
C      -1.373693     -0.920396     -0.427910
C      -0.229431     -0.720262      0.538304
C       0.928449      0.928849      0.121827
C       0.142904      2.127629      0.216652
O       1.297152      1.770716      1.065779
C       1.231979     -0.319181     -0.328404
C       2.050968     -1.126190     -0.952284
H      -2.242646     -1.334411      0.090035
H      -1.087143     -1.605932     -1.224394
H      -1.681732      0.019703     -0.890306
H      -0.524412     -0.124085      1.407425
H       0.174822     -1.647394      0.939143
H       0.332390      2.943504     -0.471047
H      -0.806137      2.128840      0.741709
H       1.804055     -2.188146     -0.845890
