17
Extracted from Q-Chem output
C      -1.775056     -0.353153      0.465605
C      -1.097847      0.767659     -0.279900
C       0.035592      1.521729      0.324085
C       0.300617      0.611591     -0.842958
C       1.051157     -0.661004     -0.710685
C       1.635832     -1.028398      0.926311
O       2.541578     -0.529069      0.149003
H      -2.594805      0.038212      1.071023
H      -1.080331     -0.856501      1.138873
H      -2.196192     -1.091652     -0.221598
H      -1.759906      1.343604     -0.917789
H       0.114559      2.585875      0.145201
H       0.415319      1.166799      1.273415
H       0.488475      1.110241     -1.785957
H       1.657244     -0.892700     -1.589010
H       0.478272     -1.590348     -0.535551
H       1.810155     -2.136350      1.061527
