16
Extracted from Q-Chem output
C       1.940655      0.204186     -0.038463
C       0.481346      0.038525      0.214881
C      -0.370978      0.457898      1.402857
C      -1.082991      1.244544     -1.089543
N      -0.524650      0.104454     -0.879853
C      -1.242507     -1.074479     -0.389292
C      -0.383934     -0.967167      0.899090
H       2.184677      1.238623     -0.296826
H       2.307572     -0.449109     -0.833883
H       2.482089     -0.035465      0.876771
H       0.218838      0.487028      2.325215
H      -2.045431      1.307012     -1.584847
H      -0.519668      2.142579     -0.872887
H      -1.003558     -1.959590     -0.978323
H      -2.322685     -0.916332     -0.307998
H      -0.102284     -1.843536      1.466529
