12
Extracted from Q-Chem output
O       0.728109     -2.452868      0.569744
C       0.829261     -1.199751      0.212065
C      -0.447111     -0.518489      0.587454
C      -0.832591      0.599366     -0.372965
O      -1.920422      0.602270     -0.888035
C       0.189517      1.674457     -0.619639
H       1.555204     -2.897449      0.353126
H       1.125858      1.222985     -0.951322
H      -0.197576     -0.044480      1.549687
H      -1.293141     -1.194328      0.739711
H      -0.184812      2.377836     -1.359766
H       0.402589      2.201570      0.313943
