16
Extracted from Q-Chem output
C      -1.145493      1.472090     -0.116422
C      -0.662547      0.159880      0.356847
C      -1.246173     -1.109305     -0.021930
O      -0.485848     -2.167582      0.125272
N       1.303700     -0.568986     -0.536733
C       2.265119      0.000102      0.236626
O       2.223690      0.065124      1.445548
H      -0.290229      2.004242     -0.540858
H      -1.500927      2.082514      0.715864
H      -1.915714      1.378465     -0.881326
H      -0.031513      0.134056      1.243339
H      -1.996908     -0.900019      0.848101
H      -1.889423     -1.043097     -0.920073
H       0.675594     -1.465044     -0.191039
H       1.493962     -0.549678     -1.527511
H       3.102974      0.447082     -0.331854
