17
Extracted from Q-Chem output
O       2.399729      0.214207      0.688425
C       1.527794     -0.468855     -0.187541
C       0.179495     -0.592990      0.493958
C      -0.570875      0.736249      0.653571
C      -1.241101      0.916638     -0.595785
O      -1.459218     -0.277722     -1.222477
C      -0.856974     -1.297461     -0.393042
H       3.218283      0.404480      0.229396
H       1.412209      0.073470     -1.136076
H       1.913986     -1.471193     -0.420932
H       0.303997     -1.115982      1.442988
H      -1.150799      0.769169      1.565574
H      -0.843042      2.166407      0.664873
H      -1.017504      1.686065     -1.319278
H      -1.779673      2.177149      0.215769
H      -0.413856     -2.023908     -1.074764
H      -1.638297     -1.787056      0.194813
