16
Extracted from Q-Chem output
C      -0.961551      0.822414      0.456055
C      -1.459098     -0.226617     -0.536540
C      -0.612475     -1.397366     -0.854180
C       0.708439     -1.358545     -0.230824
C       1.376132     -0.070047      0.293482
C       0.489585      1.164300      0.143195
H      -1.038526      0.432445      1.477494
H      -1.592167      1.713783      0.415458
H      -1.535705      0.213712     -1.548910
H      -2.484384     -0.555587     -0.341382
H       1.417514     -2.035322     -0.711038
H       0.323147     -1.974691      0.620501
H       2.317350      0.078829     -0.239122
H       1.642672     -0.202605      1.345737
H       0.546110      1.535533     -0.886349
H       0.853783      1.970354      0.783315
