17
smiles: [C:1]1([H:8])([H:10])[C:2]2([C:3]([H:11])([H:12])[C:4]1([H:13])[H:14])[C:6]([H:16])([H:17])[O:7]2.[O:5]([H:9])[H:15]
C       -0.78534900      -1.59531700       0.06341800
C       -0.46188500      -0.11178600      -0.02560400
C        1.02859700      -0.39846700      -0.12115800
C        0.65140200      -1.86486500      -0.45008000
O        1.10328100       2.71830300       0.95225000
C       -1.23089000       0.95531300      -0.64706800
O       -1.04414700       0.89320600       0.76417300
H       -1.62071700      -1.96914000      -0.52805400
H        1.00542100       3.45664400       1.55490800
H       -0.91577900      -1.89999300       1.10316400
H        1.50339600      -0.30547200       0.85703000
H        1.60774100       0.16008800      -0.85602400
H        1.21551800      -2.64258600       0.06150300
H        0.67247400      -2.06165700      -1.52172000
H        0.33166200       2.16880200       1.09529200
H       -2.24456200       0.76074500      -0.98787400
H       -0.71558600       1.77196100      -1.14595900
