17
Extracted from Q-Chem output
C       1.844384      0.238864     -0.146848
C       0.576108     -0.606431     -0.067815
C       0.132107     -0.801442      1.379276
C      -1.938203     -0.125436     -0.674463
O      -2.896891     -0.827117     -0.577340
C      -1.373655      1.218187     -0.506934
C      -0.507293     -0.009496     -0.951371
H       2.651633     -0.209704      0.435681
H       1.663711      1.242511      0.247742
H       2.191075      0.342750     -1.177202
H       0.794063     -1.596333     -0.483163
H      -0.054480      0.155317      1.873978
H       0.913440     -1.309651      1.946541
H      -0.776019     -1.403351      1.446162
H      -1.573553      1.981665     -1.249195
H      -1.260309      1.588803      0.506355
H      -0.252247      0.018739     -2.008346
