17
Extracted from Q-Chem output
C       1.929100      0.410838     -0.096975
C       0.723624     -0.505584     -0.205650
C      -0.108195     -0.666773      1.092295
C      -1.491320     -0.282698     -0.049211
O      -2.564923     -0.987889      0.195626
C      -1.182688      1.108418     -0.450048
C      -0.427773     -0.059472     -1.084019
H       2.647257      0.033863      0.634392
H       1.636465      1.417357      0.210744
H       2.437706      0.491387     -1.059452
H       1.046174     -1.496191     -0.532155
H       0.000153      0.111918      1.843745
H       0.008148     -1.654149      1.551870
H      -1.461656     -1.047162      0.987640
H      -1.979032      1.511256     -1.065632
H      -0.683655      1.836979      0.178913
H      -0.491064     -0.257441     -2.146000
