14
Extracted from Q-Chem output
O       1.565991     -1.207836      1.455783
C       1.424938     -1.061711      0.272422
C      -0.670186     -0.339357     -0.915148
C      -1.293142      0.324695      0.330893
C       0.036495      1.071260      0.573478
C       0.729827      0.091796     -0.388575
H       0.420806      1.086319      1.591952
H       1.799451     -1.833465     -0.435213
H      -0.925143      0.178697     -1.839382
H      -0.840816     -1.408115     -1.058133
H      -2.185444      0.929078      0.172782
H      -1.496370     -0.401194      1.118414
H       0.022259      2.085280      0.173879
H       1.406737      0.503626     -1.142090
