14
Extracted from Q-Chem output
C      -1.383282     -0.813033     -0.443498
N      -1.544764      0.663336     -0.272273
C      -0.224569     -0.010645     -0.087805
C       0.816688      0.278383      0.955609
C       1.810615     -0.422377      0.040435
C       0.959821      0.519886     -0.921511
O       1.060432      1.537723      0.334542
H      -1.922347     -1.390197      0.298255
H      -1.493796     -1.140698     -1.471612
H      -2.053856      1.015540      0.523681
H       0.704475      0.244094      2.050536
H       1.719662     -1.502982     -0.107316
H       2.843139     -0.104380      0.168710
H      -1.557284      1.243444     -1.104700
