14
Extracted from Q-Chem output
C      -1.480471     -0.832312     -0.367998
N      -1.530034      0.653329     -0.307318
C      -0.340909     -0.087525      0.135595
C       0.846325      0.222526      1.032750
C       1.769605     -0.333881     -0.074123
C       0.692033      0.571699     -0.772648
O       0.912780      1.524372      0.434867
H      -2.134267     -1.334522      0.335804
H      -1.470061     -1.247509     -1.371488
H      -2.183409      1.098259      0.321278
H       0.927475      0.135510      2.120999
H       1.735063     -1.403549     -0.293926
H       2.782178      0.062993     -0.049032
H      -0.709275      1.071935     -1.176337
