15
Extracted from Q-Chem output
C       2.232432     -0.073030     -0.501900
C       0.766310      0.003556     -0.223326
C      -0.022880     -1.001543      0.147695
C      -1.480061     -0.671745      0.266160
C      -1.576118      0.801282     -0.044704
O      -0.703961      1.595830      0.712538
C       0.122647      1.357716     -0.417642
H       2.435478      0.236995     -1.529303
H       2.610560     -1.084992     -0.355791
H       2.790013      0.603361      0.149817
H       0.334139     -2.012638      0.314923
H      -2.082528     -1.253170     -0.439010
H      -1.871452     -0.876152      1.268142
H      -2.553702      1.270632     -0.146079
H      -1.112433      0.990377     -1.143508
