12
Extracted from Q-Chem output
N       1.818044     -0.631559      0.126490
C       0.766056     -0.157508     -0.479459
C      -0.524183     -0.895413     -0.616375
O      -1.615557     -0.197032     -0.689436
C      -0.753119      1.454884      0.892818
N      -1.662912      2.088542      1.264952
H       2.723221     -0.199314      0.056288
H       1.726319     -1.439474      0.722754
H       0.892097      0.745689     -1.066119
H      -0.184582     -1.378436     -1.605036
H      -0.488075     -1.762154      0.099014
H      -2.641662      2.287128      1.248144
