9
Extracted from Q-Chem output
O       2.185304     -0.697410      0.643718
C       1.035677     -0.449414      0.466059
N       0.453814      0.818397      0.204846
C      -1.082887      0.711999      0.174000
C      -1.178427     -0.619841      0.277097
O       0.008698     -1.309295      0.498759
H       0.905414      1.649284      0.558042
H      -0.199960      1.108678     -0.743319
H      -2.051130     -1.250031      0.237056
