12
Extracted from Q-Chem output
C      -1.570205      0.284606     -0.169997
C      -0.965811     -1.049627      0.095835
C       0.360100     -0.895122      0.658234
C       1.021003      0.125083      0.207184
C       2.304413      0.771015      0.477163
O       2.665855      1.806137     -0.019338
H      -1.353735      1.082685      0.528051
H       0.274602      0.666848     -0.559994
H      -2.572475      0.328550     -0.596132
H      -0.891728     -1.687375     -0.788087
H      -1.740688     -1.539958      0.720281
H       2.939215      0.219757      1.195784
