13
Extracted from Q-Chem output
O       1.044137      0.768724     -1.491301
C       1.257672      0.309839     -0.204910
C       0.365968     -0.336212      0.505334
C       0.065440     -1.044986      1.746098
C      -0.957348     -0.948713      0.619459
C      -0.112624      1.410542     -1.758796
O      -0.434701      1.698186     -2.864716
H       2.263195      0.515607      0.137599
H      -0.119546     -0.464404      2.642055
H       0.540789     -2.003867      1.915528
H      -1.818272     -0.309551      0.776869
H      -1.157408     -1.839180      0.035038
H      -0.688711      1.643795     -0.849299
