15
Extracted from Q-Chem output
O      -1.550594      1.307552      0.520661
C      -1.674148     -0.022526      0.055888
C      -0.311876     -0.683773      0.020471
C       0.566080     -0.605334      1.256401
C       1.530057      0.036100      0.594543
O       2.752896      0.520458      0.862754
C       0.823806      0.091546     -0.723324
H      -2.408437      1.730047      0.476664
H      -2.336935     -0.603781      0.711789
H      -2.106042     -0.042854     -0.954565
H      -0.443396     -1.699023     -0.368725
H       0.432665     -0.941333      2.275915
H       2.961133      0.364224      1.787511
H       0.538948      1.094265     -1.043818
H       1.301656     -0.444831     -1.545442
