17
Extracted from Q-Chem output
C      -2.098834     -0.583023      0.474334
C      -1.143578      0.173766     -0.427081
O      -1.231309      1.545682     -0.131983
C       0.281429     -0.321588     -0.324912
C       1.442549      0.564406     -0.698167
C       2.210610     -0.199420      0.350969
O       0.885461     -0.202159      1.099466
H      -3.107434     -0.187255      0.357728
H      -2.110325     -1.645772      0.224934
H      -1.803997     -0.468661      1.518407
H      -1.418030     -0.007596     -1.480255
H      -0.386879      1.938331     -0.400096
H       0.350532     -1.397903     -0.536280
H       1.785761      0.696463     -1.721146
H       0.908262      0.891361      0.796096
H       2.994105      0.275160      0.939904
H       2.432579     -1.259776      0.175453
