14
smiles: [C:1]([N:2]1[C:3](=[O:7])[C:4]1([H:11])[H:12])([H:8])([H:9])[H:10].[O:5]=[C:6]([H:13])[H:14]
C        2.47158000       0.17419600       0.03389500
N        1.28900200       0.39053400      -0.76816300
C        0.15093700      -0.30948100      -0.83002600
C        0.02655300       1.09127100      -0.38967600
O       -2.96181300       0.20062200       0.15568700
C       -2.96660600      -0.86010500      -0.39623100
O       -0.30973300      -1.39627000      -1.00024000
H        2.99876100      -0.69783900      -0.35054500
H        3.12582100       1.04215900      -0.03759500
H        2.21924700      -0.00026800       1.08547600
H       -0.26587000       1.90908700      -1.03874900
H       -0.16757100       1.24105400       0.67243300
H       -3.06786400      -0.94844100      -1.49504700
H       -2.87069100      -1.81132800       0.16164000
