17
Extracted from Q-Chem output
C       2.182256      1.074917     -0.588064
O       0.827196      0.928792     -0.916121
C       0.379005     -0.410184     -0.821199
C       0.029564     -0.836617      0.592337
O      -1.417558     -0.847707      0.387016
C      -1.061256     -0.548035     -1.279869
C      -2.132615      0.246174      0.959558
H       2.391976      0.801082      0.456508
H       2.822785      0.461049     -1.235795
H       2.441791      2.123571     -0.727776
H       1.108335     -1.065191     -1.316577
H       0.301180     -0.136262      1.385416
H       0.317527     -1.851856      0.859970
H      -1.217984     -1.582355     -1.613900
H      -1.661073      1.188766      0.678422
H      -3.135570      0.204721      0.543217
H      -2.160024      0.116667      2.043553
