14
Extracted from Q-Chem output
O       2.067097     -0.447741     -0.209164
C       1.035262      0.391879     -0.642536
C      -0.354168     -0.155019     -0.269544
C      -0.266822     -1.194195      1.989968
N      -0.513260     -0.203510      1.179147
C      -1.407729      0.723371     -0.899600
O      -2.043708      1.533390     -0.284680
H       2.097037     -0.440133      0.751461
H       1.136170      1.406714     -0.236019
H       1.120832      0.456749     -1.729345
H       0.056651     -2.044262      1.355192
H      -0.437915     -1.171704     -0.662863
H      -0.860217      0.665489      1.570987
H      -1.538290      0.601251     -1.992883
