13
smiles: [C:4](=[O:5])([H:10])[H:11].[C:6](#[N:7])[H:12].[N:1]([C:2](=[O:3])[H:13])([H:8])[H:9]
N       -1.60048500       0.50919500      -1.47891400
C       -1.23271900       0.24558800      -0.20311300
O       -1.69251900      -0.63656000       0.47812600
C        0.34953300      -1.13271500       2.09593700
O        1.20439300      -0.36448900       1.76573600
C        1.99181900       0.45794900      -1.02375100
N        1.83710100       0.92613200      -2.05567800
H       -2.31104400      -0.05443900      -1.91208200
H       -1.18562100       1.26151400      -1.99489400
H        0.23120600      -2.12051800       1.61075800
H       -0.36928800      -0.89734100       2.90399000
H        2.13541800       0.02068000      -0.05956500
H       -0.44958700       0.93482900       0.16259200
