13
Extracted from Q-Chem output
N      -1.849893     -0.376431     -0.931222
C      -1.084697      0.357350     -0.078897
O      -1.499225      1.233746      0.633831
C       0.270695     -0.918010      0.879919
O       1.276186     -0.316800      1.347931
C       2.012557      0.767129      0.127015
N       1.369093      0.964726     -0.845153
H      -2.800685     -0.080271     -1.084717
H      -1.410186     -0.916666     -1.654476
H       0.402149     -1.627567      0.052232
H      -0.573919     -1.089200      1.547145
H       2.922470      0.962799      0.662895
H       0.173702      0.434090     -0.478773
