17
Extracted from Q-Chem output
C      -1.538749     -0.852514     -0.232416
C      -1.103783      0.193881     -1.203275
O      -0.799821      1.441232     -0.643387
C       0.568366      1.430540     -0.251127
C       0.926355     -0.026939      0.094828
C       0.928846     -0.315818      1.591607
C      -0.108734     -0.804535     -0.716192
H      -0.004429      0.002984      2.059950
H      -1.767806     -0.521261      0.771819
H      -2.153072     -1.666038     -0.597269
H      -1.482209      0.226144     -2.218205
H       1.190221      1.797927     -1.077091
H       0.677579      2.112041      0.594765
H       1.916385     -0.260622     -0.304191
H       1.744301      0.215507      2.087020
H       1.055656     -1.382617      1.785675
H       0.234041     -1.605428     -1.357433
