17
Extracted from Q-Chem output
C      -1.834958     -0.677643      0.213759
C      -0.891868     -0.115079     -0.805739
O      -0.676804      1.289210     -0.628753
C       0.706061      1.531104     -0.424417
C       1.299046      0.186875     -0.019800
C       0.711262     -0.323235      1.289479
C       0.408376     -0.739695     -0.732741
H      -0.513852     -0.521974      1.183416
H      -1.730893     -1.752918      0.369793
H      -2.880549     -0.385348      0.090477
H      -1.314661     -0.306469     -1.809855
H       1.176699      1.897656     -1.345114
H       0.814707      2.289594      0.354193
H       2.374277      0.093587     -0.151579
H       0.607970      0.454049      2.049732
H       1.244643     -1.186365      1.673362
H       0.624558     -1.749785     -1.049010
