11
smiles: [C:1]([N:2]([C:3]#[N:4])[H:10])([H:7])([H:8])[H:9].[C:5]=[N:6][H:11]
C       -2.22994900      -0.39549100      -0.47467500
N       -1.01471900       0.02238700      -1.16648200
C        0.12016500       0.10305400      -0.46933400
N        1.08733700       0.21188700       0.14895700
C        4.44879000       0.69451300       2.34185600
N        3.48130100       0.57457000       1.70875200
H       -2.21388600      -1.45219700      -0.19443400
H       -3.08091000      -0.20727700      -1.12705500
H       -2.34686900       0.20654500       0.42464000
H       -0.89856200      -0.32074900      -2.10600200
H        2.65274900       0.46935100       1.16576600
