17
Extracted from Q-Chem output
C      -1.478018     -1.247016     -0.068547
C      -0.433074     -0.226052      0.320461
C       1.006938     -0.584602     -0.090482
C       1.672650      0.786227     -0.313053
O       0.658592      1.767801     -0.105365
C      -0.579723      1.133257     -0.356817
O      -0.523090     -0.062343      1.730258
H      -1.477077     -1.417130     -1.146257
H      -1.282178     -2.195257      0.433804
H      -2.468592     -0.904136      0.233914
H       1.007653     -1.172410     -1.009573
H       1.485058     -1.173579      0.691020
H       2.070780      0.876720     -1.329779
H       2.480540      0.996447      0.388631
H       0.001765      0.707335      1.969122
H      -1.376407      1.738753      0.075441
H      -0.753589      1.016995     -1.436646
