9
Extracted from Q-Chem output
O       2.172747     -0.583153      0.115611
C       0.923849     -0.070529      0.059287
C       0.642592      1.256832     -0.059582
O      -0.905902      1.067619      0.018755
C      -1.213895     -0.300458      0.046494
N      -0.151777     -0.967259      0.120294
H       2.096060     -1.539951      0.114993
H      -1.431753      1.700236     -0.484071
H      -2.250894     -0.595595      0.071250
