15
Extracted from Q-Chem output
O       0.348071      1.951102     -1.173170
C       0.147985      0.803258     -0.432348
C      -1.281298      0.307258     -0.328462
C      -1.090939     -0.947095      0.549704
C       0.420058     -0.929095      0.779830
C       1.115697     -0.341244     -0.405094
C       0.920140      0.478435      0.811510
H      -1.684844      0.077462     -1.316085
H      -1.921063      1.059268      0.136482
H      -1.639089     -0.879605      1.491265
H      -1.408140     -1.859205      0.040761
H       0.921147     -1.685863      1.369472
H       1.282982      2.166793     -1.176822
H       1.975110     -0.620622     -0.990169
H       1.580905      1.031321      1.456847
