19
Extracted from Q-Chem output
C       1.927796     -0.888728     -0.491332
C       0.714631     -0.304100      0.212896
O       0.732661     -0.281757      1.513762
C       0.104071      0.863482     -0.400985
C      -1.277411      1.202956      0.109175
C      -1.820815     -0.224586      0.316547
C      -0.708646     -1.050356     -0.332444
H       2.798299     -0.276056     -0.249806
H       1.815770     -0.935819     -1.577717
H       2.112196     -1.893270     -0.110187
H       1.152528      1.290773      1.382376
H       1.152798      1.892334      0.814541
H       0.359039      1.127037     -1.427378
H      -1.243208      1.782581      1.029321
H      -1.839290      1.765857     -0.635311
H      -2.794037     -0.390495     -0.145176
H      -1.891651     -0.462323      1.374450
H      -0.808841     -1.124524     -1.416355
H      -0.558552     -2.050591      0.069058
