10
Extracted from Q-Chem output
N       2.281792      0.725649      0.376032
C       2.467381     -0.484654      0.200663
C       0.777426     -0.814732     -0.040905
N      -0.041761     -1.676970     -0.023601
C      -1.691193     -0.472329      0.075206
C      -1.408829      0.721493      0.146502
N       0.754744      0.600652     -0.021164
H      -2.345667     -1.314766      0.029425
H      -1.518785      1.777600      0.248026
H       0.741229      0.932340     -0.990015
