12
smiles: [H:8][H:9].[O:1]=[C:2]1[C:3]([H:7])=[C:4]([H:10])[O:5][C:6]1([H:11])[H:12]
O        0.84161100       2.21031800       0.27777700
C        0.49802000       1.12342000      -0.11418700
C       -0.66006100       0.72156300      -0.90600400
C       -0.57443800      -0.60569900      -1.06697500
O        0.48189400      -1.20523500      -0.50028100
C        1.24784500      -0.18283900       0.14289900
H       -1.43006600       1.37335100      -1.28281900
H       -1.47744800      -0.53028100       1.86405700
H       -1.30175200      -1.06622900       2.35011800
H       -1.23815300      -1.27769400      -1.59497200
H        2.24738600      -0.15985200      -0.29216400
H        1.31531800      -0.40213000       1.20877800
