16
Extracted from Q-Chem output
C      -1.477422      1.223849      0.565090
C      -0.922627     -0.105567      0.144368
C       0.168663     -0.745191      0.880338
C       1.273811     -1.044442     -0.294235
C       1.057480      0.138878     -1.190801
O       2.538027     -0.989326     -0.038741
H      -0.680406      1.918429      0.834180
H      -2.098643      1.082958      1.454941
H      -2.099344      1.676945     -0.207514
H      -0.239503      0.194120     -1.017989
H      -1.645470     -0.779650     -0.314137
H      -0.101868     -1.699012      1.326996
H       0.631470     -0.090080      1.618643
H       0.899228     -1.973502     -0.784250
H       1.331516      0.064708     -2.243270
H       1.353825      1.083099     -0.736453
