16
Extracted from Q-Chem output
C      -0.728650      0.692832     -0.640567
C      -0.327265     -0.749725     -0.876957
O       0.752832     -0.736125     -1.798671
C       0.112615     -1.191899      0.523001
N       0.562983      0.025890      1.196164
C       0.311918      1.191521      0.364391
O      -0.105630      2.294047      1.132065
H      -1.718057      0.737935     -0.177559
H      -0.745185      1.277853     -1.557993
H      -0.658123      1.938987      1.834612
H      -1.149115     -1.364076     -1.261329
H       1.066805     -1.633544     -1.921644
H      -0.732186     -1.642135      1.056125
H       0.902108     -1.946702      0.468637
H       1.515072     -0.023503      1.519239
H       1.209454      1.537739     -0.157229
