16
Extracted from Q-Chem output
C      -0.943136      0.733610     -0.760500
C      -0.499951     -0.693644     -0.739916
O       0.398181     -0.976798     -1.824739
C       0.273317     -0.991533      0.585773
N       1.175859      0.121112      0.776887
C       0.688390      1.311532      1.032775
O      -0.398309      1.528594      1.752956
H      -2.006461      0.829729     -0.994046
H      -0.387397      1.288968     -1.518612
H      -1.026080      1.269503      0.964466
H      -1.351889     -1.383767     -0.767240
H       0.508699     -1.927255     -1.899238
H      -0.413835     -1.033698      1.429130
H       0.851121     -1.916149      0.550295
H       2.015396      0.110240      0.217173
H       1.385672      2.138649      0.897119
