14
Extracted from Q-Chem output
C       2.395144      0.368693     -0.436544
N       1.321703     -0.279411      0.289157
C       0.123469     -0.478293     -0.399011
C      -1.080623     -0.279845      0.098900
C      -2.518761     -0.345509      0.079738
N      -1.750564      0.093923      1.282817
H       2.604779     -0.193480     -1.349077
H       3.301698      0.361015      0.169281
H       1.175248      0.106360      1.209097
H       0.225551     -0.876424     -1.402732
H       2.173296      1.406203     -0.722593
H      -3.035457     -1.291080      0.202331
H      -3.067309      0.408969     -0.476202
H      -1.797803      1.101574      1.397680
