14
Extracted from Q-Chem output
C       1.840469      0.156964     -0.274550
N       1.242790     -1.043906      0.354226
C       0.390504     -0.521077     -0.636163
C      -0.733322      0.452423     -0.404320
C      -1.983171     -0.123013      0.128964
N      -1.022899      0.487037      1.052583
H       2.679687     -0.027324     -0.931875
H       1.905542      1.008730      0.398518
H       0.831347     -0.750146      1.244488
H       0.443861     -0.990483     -1.615139
H       0.762382      0.776065     -0.843093
H      -2.104044     -1.195553      0.268190
H      -2.913963      0.398668     -0.072293
H      -1.327093      1.418858      1.303354
