15
Extracted from Q-Chem output
O      -2.442704     -0.254765     -0.425196
C      -1.400969     -0.460060      1.040181
C      -0.322119      0.531763      0.757534
N       0.288001      0.265697     -0.539149
C       1.651968      0.711694     -0.732155
C       1.341833     -0.727804     -0.567094
H      -1.745093      0.027403     -1.044777
H      -2.063400     -1.161096     -0.060063
H      -2.089097     -0.077144      1.797423
H      -0.668178      1.573917      0.738626
H       0.395030      0.438506      1.592296
H       1.888091      1.112272     -1.710555
H       2.131400      1.218189      0.100274
H       1.601871     -1.199003      0.375181
H       1.349755     -1.386513     -1.426658
