15
Extracted from Q-Chem output
C      -1.183298     -1.154084      0.462651
C      -0.375214     -0.088420     -0.203969
C      -0.931271      0.761676     -1.284137
N      -0.547934      1.300065      0.018903
C       1.376594     -0.423295      0.253318
O       1.091966     -0.810332     -0.946291
N       2.505168      0.280550      0.370473
H      -2.244359     -0.990471      0.252713
H      -0.902827     -2.128429      0.068281
H      -1.015350     -1.148518      1.538061
H      -0.310518      1.088437     -2.107221
H      -1.984053      0.633263     -1.517412
H      -1.299983      1.507770      0.664201
H       2.800151      0.623420      1.264554
H       3.052855      0.508769     -0.450496
