15
Extracted from Q-Chem output
C      -1.389279      0.642604     -1.125907
C      -0.253689     -0.086397     -0.425157
C      -0.746546     -0.964551      0.731292
C       0.783099      0.895206      0.082913
O       0.667124      2.093048      0.084860
C       2.004918      0.273272      0.608618
C       3.031843     -0.295181      1.042368
H      -1.925479      1.287619     -0.428621
H      -2.095279     -0.080507     -1.536545
H      -1.022252      1.268804     -1.938779
H       0.270805     -0.732145     -1.139968
H      -1.253818     -0.357950      1.484519
H      -1.457961     -1.701407      0.357259
H       0.069857     -1.500805      1.216897
H       3.099114      0.911104      1.133429
