18
Extracted from Q-Chem output
C      -1.919379      0.114746     -0.930266
C      -1.464286     -0.447169      0.346381
N      -0.053244     -0.505743      0.549089
C       0.401890      0.237505      1.704184
C       0.534158     -0.188320     -0.753434
O       0.118842     -1.005131     -1.670184
C       2.025346      0.124832     -0.765406
H      -3.003514      0.203985     -1.008520
H      -1.360178      0.141414     -1.851203
H      -0.027200      0.871623     -0.906651
H      -1.920522     -1.460812      0.331948
H      -1.967598      0.063052      1.175338
H      -0.143524     -0.096444      2.588631
H       1.459141      0.045592      1.879100
H       0.254588      1.325492      1.601316
H       2.305404      0.357793     -1.790962
H       2.579981     -0.760197     -0.449507
H       2.290677      0.966587     -0.125376
