14
Extracted from Q-Chem output
C       1.788506     -0.914435      0.173003
O       1.684388      0.790336      0.647023
C       0.599669     -0.053745      0.132349
C      -0.689518     -0.106378      0.944848
C      -1.455891     -0.148181     -0.399327
C      -0.176667      0.349281     -1.115626
H       1.819180     -1.346746      1.185721
H       2.160510      1.158793     -0.104427
H      -0.854348      0.828331      1.483197
H      -0.803360     -0.944787      1.631053
H      -2.339726      0.481606     -0.478739
H      -1.718874     -1.164191     -0.690937
H      -0.191181      1.432954     -1.254683
H       0.126831     -0.137160     -2.041689
