12
Extracted from Q-Chem output
N       2.238823     -0.378641     -0.506111
C       1.315765      0.050331      0.360798
N       0.204753     -0.454372      0.991578
C      -0.986196     -0.499078      0.127163
C      -2.160245      0.333163      0.438016
C      -1.482617      0.695667     -0.600797
N       0.872410      1.026024      1.001548
H       3.047529      0.196532     -0.664499
H       2.353048     -1.371653     -0.604887
H      -1.098545     -1.509580     -0.268844
H      -2.967443      0.512870      1.125996
H      -1.329438      1.392647     -1.405409
