12
Extracted from Q-Chem output
N       2.472600     -0.336646      0.043156
C       1.149455      0.005155      0.045072
N       0.231028     -0.959403      0.216230
C      -1.095585     -0.616034     -0.036155
C      -1.917302      0.409533      0.682992
C      -1.527227      0.745924     -0.510178
N       0.686240      1.200659      0.101295
H       3.138610      0.338390     -0.282979
H       2.652311     -1.304516     -0.164108
H      -1.643869     -1.516659     -0.323918
H      -2.541788      0.576619      1.543731
H      -1.596631      1.450887     -1.320583
