15
Extracted from Q-Chem output
C       1.759132     -0.403907      0.761199
C       0.492721     -0.449791     -0.037635
C       0.360350     -1.082648     -1.193269
C      -0.663112      0.281475      0.569882
O      -1.042533     -0.305144      1.761717
C      -1.593143      1.087884     -0.213345
O      -0.570668      1.685966      0.601354
H       2.055610      0.632415      0.939536
H       2.569648     -0.916853      0.244726
H       1.610487     -0.871741      1.736276
H       1.192514     -1.612218     -1.642088
H      -0.582645     -1.101349     -1.725918
H      -1.543021      0.341494      2.267160
H      -1.458372      1.216114     -1.282638
H      -2.607071      1.223985      0.153372
