15
Extracted from Q-Chem output
C       1.835538     -0.074122      0.812310
C       0.530406     -0.337980      0.148394
C       0.221705     -1.116988     -0.951501
C      -0.872876     -0.149327      0.468341
O      -1.618652     -1.043739      1.081781
C      -1.106661      1.283582      0.163971
O       0.167373      1.563942     -0.230110
H       2.560881      0.229387      0.056486
H       2.191396     -0.999266      1.274988
H       1.757045      0.712425      1.557345
H       0.789334     -1.031482     -1.872374
H      -0.616671     -1.797002     -0.951238
H      -2.550660     -0.809681      1.000169
H      -1.923504      1.447923     -0.564296
H      -1.413230      1.792356      1.101110
