16
Extracted from Q-Chem output
C      -2.389035     -0.091170      0.317323
C      -1.045097     -0.260460     -0.376326
C       0.023733      0.679820      0.200576
C       1.297718      0.596122     -0.553203
C       2.399425     -0.115425     -0.189729
C       2.323022     -0.932811      0.966303
H      -2.299641     -0.277714      1.389652
H      -3.128394     -0.787183     -0.082250
H      -2.778228      0.921357      0.186277
H      -0.687927     -1.287304     -0.261130
H      -1.157470     -0.085812     -1.451502
H      -0.344627      1.709945      0.139122
H       0.209344      0.417108      1.242766
H       3.255060     -0.090950     -0.867646
H       1.315618      1.108973     -1.515545
H       3.138234     -1.676336      0.917730
