16
Extracted from Q-Chem output
C      -2.347247     -0.258643      0.240437
C      -0.954372     -0.259065     -0.372217
C      -0.051658      0.827279      0.225951
C       1.338710      0.834460     -0.319619
C       2.290833     -0.085955      0.075044
C       2.936450     -0.859517      0.888736
H      -2.301743     -0.434324      1.317658
H      -2.970639     -1.039219     -0.198261
H      -2.850337      0.698225      0.081735
H      -0.476714     -1.230585     -0.216193
H      -1.021109     -0.114596     -1.454962
H      -0.505383      1.807770      0.052687
H       0.020790      0.668718      1.308577
H       2.229869     -0.307570     -1.071781
H       1.586146      1.514771     -1.128353
H       3.174522     -1.885885      0.621743
