16
Extracted from Q-Chem output
C      -2.409713      0.454573     -0.155277
C      -1.203437     -0.461952     -0.001134
C       0.108754      0.309200      0.091141
C       1.298337     -0.613373      0.229649
C       3.269355      0.244189     -0.664432
O       2.507574      0.166807      0.372448
H      -3.337880     -0.116679     -0.207027
H      -2.490619      1.144561      0.687875
H      -2.335731      1.052223     -1.066679
H      -1.325430     -1.080964      0.893818
H      -1.158818     -1.153701     -0.848355
H       0.247081      0.921972     -0.805336
H       0.082243      0.992803      0.945259
H       1.426201     -1.253288     -0.645048
H       1.233296     -1.221595      1.133760
H       4.096141      0.903737     -0.313191
