8
Extracted from Q-Chem output
O      -1.377266     -0.229103      0.238668
C      -0.134681     -0.619751     -0.215979
C       0.846838      0.270236     -0.253626
O       0.734687      1.547801      0.182729
H      -0.159562      1.665177      0.521470
H      -1.797190     -0.955223      0.700232
H      -0.018282     -1.627941     -0.591488
H       1.820387      0.032281     -0.657397
