15
smiles: [C:1]([C:2](=[O:3])[H:14])([H:8])([H:9])[H:10].[C:4]1([O:5][H:11])=[C:7]([H:15])[C:6]1([H:12])[H:13]
C        1.83987800       0.59546700      -0.87483600
C        2.22025800       0.62551700       0.57458100
O        1.75572900      -0.09217400       1.41642300
C       -1.33445100      -0.80054700       0.37196900
O       -0.39715500      -1.67136400       0.72933300
C       -2.68385400      -0.75998700      -0.20776700
C       -1.78836500       0.39637100       0.24201800
H        1.07762400      -0.15909200      -1.05887900
H        1.47561300       1.58081200      -1.17696600
H        2.72741800       0.38729400      -1.47830400
H        0.35870300      -1.19219800       1.08227500
H       -3.54317500      -1.04294500       0.40207500
H       -2.82150000      -0.95092800      -1.27312100
H        2.99017200       1.37876900       0.84639900
H       -1.71445100       1.46329300       0.33303900
