13
Extracted from Q-Chem output
C      -2.430445      0.418648      0.237622
O      -1.825633     -0.706065     -0.434632
C      -0.544485     -0.784949     -0.648950
O       0.044021      0.310507     -0.169530
C       2.296647     -0.727292     -0.022053
C       1.434571      0.395417     -0.329437
O       2.153023      0.399569      0.852960
H      -2.268694      1.333816     -0.329651
H      -3.490220      0.185468      0.287301
H      -2.016113      0.530678      1.238110
H       3.262066     -0.816668     -0.509151
H       1.840089     -1.645336      0.328366
H       1.691557      1.161079     -1.054032
