13
Extracted from Q-Chem output
C       1.735704      0.053989     -0.260560
C       0.318150      0.273153      1.051031
O       0.321445      1.137686      1.823637
C      -0.731206     -0.542183      0.139808
C      -2.042636     -0.116155     -0.048993
N      -0.059399     -0.153498     -1.075872
H       1.983915      0.275370     -1.302631
H       2.074965     -0.955428     -0.041553
H       2.293566      0.781028      0.337876
H      -0.602976     -1.602865      0.347042
H      -2.243830      0.929479     -0.247686
H      -2.893792     -0.772360      0.077248
H      -0.228140      0.844162     -1.212015
