10
Extracted from Q-Chem output
O       2.448000     -0.826173     -0.086745
C       1.395892     -0.300749      0.034933
O       1.121439      0.993026      0.306167
C      -0.319281      0.756664      0.329945
C      -1.040617      0.954051     -0.867548
C      -0.052106     -0.766129     -0.036807
H      -0.710346      0.926653      1.332361
H      -2.089534      0.710696     -0.621805
H      -0.337863     -1.096157     -1.038458
H      -0.395704     -1.461522      0.723093
