10
Extracted from Q-Chem output
O       2.344897     -1.035209     -0.031993
C       1.338436     -0.429394      0.094023
O       1.189667      0.941149      0.190054
C      -0.216758      0.770773      0.472293
C      -0.880944      0.189069     -0.706638
C      -0.125226     -0.710507      0.267033
H      -0.643314      1.352858      1.273887
H      -1.957952      0.084145     -0.651988
H      -0.477788      0.380156     -1.693378
H      -0.571017     -1.543039      0.786705
