15
Extracted from Q-Chem output
O       2.507263     -0.265980      1.160091
C       1.542135      0.295423     -0.318415
C       0.291937      0.009685      0.264126
O      -0.580125      1.074324      0.692124
C      -1.701619      0.270412      0.344588
C      -1.741984     -0.021363     -1.114096
C      -0.854040     -0.841853     -0.201620
H       2.840482      0.469162      1.691014
H       1.895669      1.317803     -0.395547
H       1.986399     -0.414676     -1.003237
H       1.292258     -0.382576      1.241398
H      -2.552277      0.270388      1.012212
H      -1.308967      0.684706     -1.813711
H      -2.634701     -0.530041     -1.457950
H      -0.951834     -1.910949     -0.085730
