13
Extracted from Q-Chem output
C      -1.127482      0.543931      0.017921
C       0.047096     -0.019371     -0.742590
C       0.505652     -1.432407     -0.496940
C       0.262182      1.043877      0.281880
O       0.915471      0.672877      1.458335
H      -1.558763     -0.097030      0.777978
H       0.498688      1.127702      2.192018
H      -1.831437      1.191144     -0.488831
H       0.142137      0.315654     -1.769898
H       1.549586     -1.560745     -0.790019
H      -0.097756     -2.138059     -1.071642
H       0.426073     -1.690734      0.558731
H       0.518555      2.037380     -0.077094
