10
Extracted from Q-Chem output
O       2.926519      0.038075      0.339902
C       1.895136     -0.055383     -0.252289
C       0.564857      0.446619      0.330515
N      -0.506935      0.260843     -0.560273
C      -1.464810     -0.855598     -0.317423
C      -1.846443      0.281278      0.095911
O       0.482805      1.012171      1.383693
H       1.820448     -0.523800     -1.252424
H      -1.526401     -1.901452     -0.551351
H      -2.513141      1.014417      0.505040
