12
Extracted from Q-Chem output
C      -2.253216      0.111352     -0.854022
N      -1.061935     -0.183114     -0.374602
C       0.176208      0.071056     -0.796562
N       1.245052     -0.456696     -0.055363
C       1.974860      0.270917      0.845353
O       2.971662     -0.125510      1.392651
H      -1.066161     -0.703925      0.496217
H      -2.329713      0.665655     -1.775298
H      -3.117423     -0.200192     -0.294820
H       0.314608      0.589755     -1.733029
H       1.668541     -1.336807     -0.319476
H       1.533146      1.268356      1.023918
