12
Extracted from Q-Chem output
C      -2.295749     -0.025585     -0.915295
N      -1.027672     -0.465510     -0.506513
C       0.081661      0.171848     -0.428468
N       1.172194     -0.378374      0.242439
C       2.321906      0.291108      0.527935
O       3.268879     -0.197654      1.091722
H      -1.792614     -0.670865      0.301687
H      -2.403263      0.943229     -1.396604
H      -2.941584     -0.836716     -1.219080
H       0.220322      1.154588     -0.868539
H       1.124762     -1.344886      0.528784
H       2.300258      1.341314      0.186498
