14
Extracted from Q-Chem output
O      -0.583499     -1.586730      0.541169
C      -0.678175     -0.424638     -0.249373
C      -1.418458      0.813138      0.313842
N      -0.242396      1.630581     -0.059153
C       0.544182      0.450498     -0.201612
C       1.838169      0.178642     -0.173447
O       2.345173     -1.088394     -0.269683
H      -1.307295     -2.177250      0.325271
H      -0.985976     -0.671019     -1.270930
H      -1.561825      0.704366      1.392726
H      -2.350493      1.117208     -0.165246
H       0.067809      2.325493      0.603963
H       1.634276     -1.711322     -0.083767
H       2.603863      0.936286     -0.064094
