15
Extracted from Q-Chem output
O       2.177953     -2.092699      0.869323
C       1.103940     -1.276951      0.977451
C      -0.156544      1.998172     -0.645779
C      -1.074812      0.813569     -0.805677
C      -1.052941     -0.222675      0.310098
C       0.100366     -1.165028      0.116393
O      -1.778205      0.670576     -1.773817
H       2.119916     -2.596865      0.053173
H       1.147106     -0.698407      1.894259
H       0.837512      1.673329     -0.333040
H      -0.098010      2.556721     -1.577038
H      -0.548496      2.649094      0.140595
H      -0.965658      0.275459      1.279365
H      -2.002297     -0.760277      0.276360
H       0.093056     -1.766913     -0.789627
