13
Extracted from Q-Chem output
C      -1.844494     -0.459868     -0.134917
N      -0.715763     -0.216384      0.747302
C      -0.242257      1.165848      0.904077
C       0.496145      0.157255      0.160816
C       1.434810     -0.225638     -0.631601
C       2.402476     -0.618588     -1.410560
H      -1.791257     -1.485230     -0.500754
H      -1.854217      0.218076     -0.998878
H      -2.770557     -0.340552      0.428249
H      -0.739301      1.941353      0.324881
H       0.057386      1.445088      1.907699
H       2.359443     -0.469809     -2.484273
H       3.284131     -1.106901     -1.009194
