13
Extracted from Q-Chem output
C      -1.544617     -0.528446     -0.367329
N      -0.538899     -0.225462      0.625707
C       0.008042      1.145062      0.686073
C       0.792310     -0.022622      0.247914
C       2.036519     -0.796216      0.448576
C       1.900093     -0.546679     -0.841684
H      -1.520823     -1.596865     -0.583354
H      -1.389179      0.024153     -1.308033
H      -2.529252     -0.275464      0.024806
H      -0.334454      1.850797     -0.067312
H       0.155073      1.552519      1.679402
H       0.915607      0.281325     -1.052873
H       2.096388     -0.866367     -1.855535
