19
Extracted from Q-Chem output
C       2.272100      0.134811      0.752248
C       1.029902     -0.535682      0.179443
C      -0.004606      0.470422     -0.337927
C      -1.153183     -0.203757     -1.119357
C      -0.608577      1.197745      0.826123
C      -1.855300     -1.352420     -0.403358
O      -0.419522      2.483273      0.654001
H       3.004603     -0.605505      1.078205
H       2.023341      0.757200      1.615333
H       2.752374      0.777323      0.010159
H       0.568072     -1.163279      0.945225
H       1.310605     -1.197078     -0.646695
H       0.495590      1.176062     -1.016951
H      -0.734895     -0.560641     -2.065491
H      -1.887850      0.562670     -1.385487
H      -2.694767     -1.713280     -1.000472
H      -2.236996     -1.037704      0.568271
H      -1.182696     -2.196592     -0.242267
H      -0.824248      2.948635      1.394265
