14
Extracted from Q-Chem output
C       2.295678     -0.378928      1.030141
N       1.404441      0.472859      0.518842
C       0.469499      0.281909     -0.396521
O       0.145395     -1.022123     -0.779946
C      -1.204688     -0.589941     -0.996221
C      -1.834846     -0.136143      0.271489
C      -0.919470      0.801027     -0.505388
H       1.468745      1.433693      0.825092
H       3.117458      0.031644      1.590588
H       2.274953     -1.400605      0.692018
H      -1.710653     -0.953286     -1.878585
H      -1.503808     -0.564774      1.210128
H      -2.890471      0.099611      0.206609
H      -1.241725      1.750452     -0.906208
