9
Extracted from Q-Chem output
N      -0.624587      0.707500     -0.019792
C       0.742127      0.964043      0.018042
C       1.460676     -0.210924      0.041000
N       0.414310     -1.142542      0.013226
C      -0.803485     -0.604277     -0.021815
H      -1.370563      1.380600     -0.042607
H       1.087701      1.984768      0.025395
H       0.570434     -2.135341      0.019684
H      -1.751943     -1.114490     -0.046369
