9
Extracted from Q-Chem output
N      -0.625111      0.680994     -0.043366
C       0.738437      0.865824     -0.003081
C       1.346230     -0.346736      0.215415
N       0.231298     -1.283156      0.269092
C      -0.895294     -0.620850      0.047466
H      -1.321298      1.407425     -0.062456
H       1.158792      1.852533     -0.109927
H       1.183669     -1.576114     -0.331773
H      -1.891389     -1.034416      0.013372
