17
Extracted from Q-Chem output
C       2.694267      0.218998      1.263568
C       1.780970      0.476510      0.338244
C       0.403801     -0.049285      0.338831
C      -0.209669     -0.359052     -0.998315
C      -1.567196     -1.026305     -0.805223
C      -2.038605      0.213391      0.006916
C      -0.670020      0.849547     -0.208697
H       3.689864      0.640208      1.205719
H       2.476724     -0.422051      2.111181
H       2.040435      1.125623     -0.496425
H       0.156553     -0.693853      1.179923
H       0.398806     -0.400191     -1.892190
H      -1.555575     -1.986485     -0.284773
H      -2.121227     -1.138667     -1.736312
H      -2.842941      0.749752     -0.495037
H      -2.324323      0.045787      1.047752
H      -0.475508      1.898610     -0.389694
