17
Extracted from Q-Chem output
C       1.579925      0.419205      1.487742
C       1.436347      0.492607      0.109030
C       1.008919     -0.864248     -0.538662
C      -0.233851     -0.498129     -1.283514
C      -1.555057     -0.820659     -0.548213
C      -1.306695      0.409589      0.362575
C      -0.075465      0.778540     -0.472869
H       2.493928      0.722212      1.983528
H       0.845074     -0.100729      2.088494
H       2.168740      1.084979     -0.435297
H       0.995155     -1.714098      0.149834
H      -0.199080     -0.535903     -2.371017
H      -1.594271     -1.795473     -0.059510
H      -2.440766     -0.709500     -1.175039
H      -2.091218      1.163343      0.296831
H      -1.114371      0.211319      1.416178
H      -0.024013      1.763377     -0.931978
