14
Extracted from Q-Chem output
C       1.583089     -0.059492     -1.076115
C      -0.421245      1.207019      1.326384
C      -1.063772      0.476559      0.176342
C      -0.554452     -0.937185     -0.044616
C       0.794783     -1.050648     -0.692627
O       0.264348      0.695706      2.167245
H       1.320922      0.984121     -0.940377
H       2.543541     -0.255264     -1.535895
H      -0.652131      2.292546      1.377360
H      -2.137280      0.465214      0.403075
H      -0.970493      1.093545     -0.723106
H      -0.519415     -1.457821      0.917122
H      -1.274559     -1.488923     -0.656851
H       1.134152     -2.071364     -0.850692
