14
Extracted from Q-Chem output
C       1.191818      0.337714     -0.683985
C       0.244188      0.896971      0.763530
C      -1.123061      0.425109      0.201190
C      -0.773312     -1.011933     -0.226340
C       0.711494     -0.906144     -0.234859
O       0.745369      0.163130      1.706404
H       0.689462      0.798191     -1.529907
H       2.254187      0.532765     -0.608006
H       0.302641      1.997529      0.876554
H      -1.878230      0.463679      0.987815
H      -1.461397      1.045832     -0.630705
H      -1.112824     -1.774616      0.469661
H      -1.149012     -1.262564     -1.223357
H       1.347599     -1.711484      0.112287
