12
smiles: [C:2]([C@@:3]([O:4][H:11])([C:5]#[C:6][H:12])[H:10])[H:8].[O:1]([H:7])[H:9]
O       -1.46176800      -0.75795800      -0.86163000
C       -0.62354700       1.32721200      -0.37160800
C       -0.05774700       0.42454200       0.42156100
O       -0.70559100      -0.04907400       1.52321500
C        1.25273700      -0.11380200       0.18847500
C        2.34037700      -0.59412300       0.03804300
H       -1.36762300      -1.01517600       0.05644000
H       -1.61434700       1.70153800      -0.15337300
H       -0.82782000      -1.29182500      -1.34207200
H       -0.09700400       1.69180400      -1.23973400
H       -0.14811700      -0.69006000       1.96852900
H        3.30890400      -1.01174600      -0.10753300
