12
Extracted from Q-Chem output
O      -1.438655     -1.163912     -0.731690
C      -1.044757      0.564786     -0.781799
C      -0.009542      0.774581      0.264700
O      -0.521740      0.604159      1.582859
C       1.175531     -0.075784      0.062946
C       2.114678     -0.809055     -0.062026
H      -0.663481     -1.584306     -0.333906
H      -2.004257      0.943186     -0.429586
H      -1.089262     -0.639060     -1.578317
H       0.287056      1.823688      0.101134
H       0.200580      0.683805      2.210771
H       2.961117     -1.443929     -0.181852
