15
Extracted from Q-Chem output
C      -0.028204     -0.069602     -1.793554
C      -0.416382     -0.410415     -0.390583
O      -1.591878     -1.100984     -0.313363
C       0.513359     -0.571433      0.650998
O       1.834337     -0.306874      0.346163
C       0.049226      0.837961      1.856661
O       0.950692      1.390144      2.329233
H      -0.879746      0.337673     -2.336756
H       0.791150      0.644940     -1.797688
H       0.306514     -0.977082     -2.303348
H      -0.964046      1.040523      0.022198
H      -1.711129     -1.453501      0.572582
H       0.360335     -1.430703      1.306156
H       2.215949      0.214800      1.063770
H      -1.011871      1.331189      0.848182
