13
Extracted from Q-Chem output
O       0.911273      1.704538      0.435040
C       1.513702      0.835205     -0.292134
C       1.277699     -0.512012     -0.141767
O       0.652263     -1.001507      0.998194
C      -0.706941     -0.950150      0.584619
C      -1.210579      0.385403      0.185210
C      -0.688394     -0.427579     -0.793063
H       2.081333      1.176288     -1.159924
H       1.819700     -1.239098     -0.737842
H      -1.309835     -1.764010      0.969235
H      -2.148467      0.908791      0.282945
H      -0.163731      1.284465      0.512420
H      -0.876776     -0.723957     -1.812230
