11
smiles: [C:3](=[C:4]1[C:5]([H:10])([H:11])[O:6]1)([H:7])[H:8].[N:1]#[C:2][H:9]
N        3.45158900       1.72355200       0.96682200
C        2.56658600       1.36772200       0.33580100
C       -0.67979200      -1.90093500      -0.28573600
C       -0.75288700      -0.59026800      -0.29248600
C       -1.23497200       0.70268500       0.08419400
O       -0.16498000       0.46577300      -0.88332100
H       -1.34097000      -2.47204500       0.34848300
H        0.03587700      -2.41836700      -0.90933100
H        1.73988400       1.03533800      -0.25363400
H       -2.15087500       1.09167500      -0.34803400
H       -0.90544500       1.15713200       1.01260100
