11
Extracted from Q-Chem output
N       2.604604      0.583539      0.160941
C       1.552290      0.116431      0.452200
C       0.636920     -0.969231     -0.164075
C      -0.620443     -0.268344      0.109076
C      -1.324697      0.920238     -0.286263
O      -1.807446     -0.460509     -0.440786
H       0.816781     -1.799523      0.518526
H       0.739605     -1.320475     -1.201456
H       0.780251      0.381880      1.341057
H      -1.858291      1.504214      0.452698
H      -1.091226      1.403432     -1.229485
