16
Extracted from Q-Chem output
C      -0.934559     -0.704985      1.465961
C      -0.547282      0.388127      0.492067
C       0.946077      0.753000      0.371300
C       0.938218      0.567429     -1.157871
C      -0.006476     -1.077520     -1.633019
C      -0.604404      0.053553     -1.020480
H      -0.724600     -0.401176      2.494152
H      -1.999387     -0.937129      1.393723
H      -0.376579     -1.623632      1.272431
H      -1.142749      1.282598      0.686650
H       1.200022      1.762019      0.693413
H       1.614768      0.052772      0.873104
H       0.952478      1.453195     -1.785218
H       0.485661     -1.690614     -0.855857
H       1.677048     -0.128021     -1.574339
H      -1.298862      0.632732     -1.626319
