12
Extracted from Q-Chem output
O      -1.821260     -0.970399      2.015362
C      -1.346520     -1.141669      0.986552
C      -0.378966      0.533995      0.225569
C       1.035119      0.857883      0.465581
C       0.613174      0.592693     -0.954353
C       0.215756     -0.739863     -1.093790
N      -0.144609     -1.873137     -1.164520
H      -0.877303     -1.951418     -0.259775
H      -1.163061      1.278165      0.256657
H       1.680779      0.140058      0.961835
H       1.297072      1.895095      0.648167
H       0.652321      1.311052     -1.759231
