13
smiles: [C:5](=[C:6]([H:12])[H:13])([H:10])[H:11].[N:1]#[C:2][C@@:3]1([H:8])[C:4]([H:9])=[N:7]1
N        1.97655000       1.35161700       1.50067900
C        1.96371600       0.93625700       0.43096700
C        1.95952100       0.39529300      -0.90877300
C        0.72858800      -0.05982400      -1.52564100
C       -2.08747500      -0.97736600       0.61653000
C       -1.39455600       0.00287000       1.17007400
N        1.05666000       1.06193300      -1.94109800
H        2.92168900       0.04088000      -1.25973200
H       -0.04423800      -0.80593100      -1.63894100
H       -2.84975200      -0.78416400      -0.12966100
H       -1.92079600      -2.01431400       0.88534400
H       -0.63226900      -0.19013600       1.91632000
H       -1.56120500       1.03986100       0.90134900
