13
Extracted from Q-Chem output
N       1.998390      0.738530      1.744364
C       1.612174      0.575415      0.673058
C       1.232165      0.378451     -0.725928
C       0.045423     -0.451925     -1.029549
C      -0.958222     -0.770288      0.088006
C      -1.039162      0.351195      0.981531
N       0.021954      0.923478     -1.304633
H       2.117920      0.364995     -1.357743
H       0.079012     -1.188648     -1.830718
H      -1.889838     -0.770147     -0.503261
H      -0.955846     -1.732970      0.617793
H      -1.714270      0.316059      1.831774
H      -0.483915      1.259150      0.822665
