12
Extracted from Q-Chem output
N       2.647988      0.254588      1.134364
C       2.185049     -0.807524      1.001272
C       0.358798     -0.167417     -0.644412
C      -0.933406     -0.885495     -0.696449
N      -1.837690     -0.102466      0.124915
C      -1.170233      0.886480      0.540587
N       0.162309      0.902253      0.063074
H       1.289228     -0.382795     -1.140994
H      -1.309949     -0.990459     -1.718840
H      -0.815370     -1.895543     -0.291889
H      -1.523385      1.671600      1.194428
H       0.964174      1.405638      0.451253
