9
smiles: [C:2](#[C:3][H:8])[H:7].[N-:1]([N+:5]#[C:4][H:9])[H:6]
N       -0.69015600      -1.64652100       0.58722900
C       -1.14755600       1.96155500      -0.36999800
C       -0.11724000       1.66930100       0.15944600
C        1.65230100      -1.50969800       0.05709200
N        0.48231800      -1.54362200       0.22566800
H       -1.19684200      -0.80275500       0.32162600
H       -2.06551000       2.22393900      -0.84193900
H        0.80144400       1.40943500       0.63103100
H        2.26553200      -1.81062100      -0.77383000
