13
Extracted from Q-Chem output
C       2.049001     -0.354237     -0.568959
C       0.784445     -0.726587     -0.690377
C      -0.246069     -0.636087      0.395582
C      -1.434968      0.202643     -0.017023
C      -1.542982      1.609331      0.289168
N      -2.235106      0.914962      1.059670
H       2.434859      0.046701      0.362828
H      -1.296151      2.650274      0.130939
H       2.747485     -0.443175     -1.392039
H       0.440622     -1.124860     -1.642992
H       0.197699     -0.216195      1.301168
H      -0.600402     -1.642276      0.646690
H      -2.026408     -0.201324     -0.836719
