11
Extracted from Q-Chem output
C      -1.662595     -0.205708      0.163040
C      -0.289223      0.411116      0.196345
C      -0.058872      1.682587      0.273509
C       0.906721     -0.522906      0.289338
O       0.797690     -1.605527      0.809177
N       2.056955     -0.043989     -0.234250
H      -1.802741     -0.746588     -0.773123
H      -2.440663      0.548765      0.261306
H      -1.735680     -0.914550      0.987658
H       2.879428     -0.619029     -0.183838
H       2.071534      0.805555     -0.768501
