11
Extracted from Q-Chem output
C      -1.618275     -0.175502     -0.604588
C      -0.183471     -0.109237      0.771690
C       1.198564     -0.177782      0.096996
O       0.769432      0.454515     -1.105818
C      -0.538111      0.718971     -0.563066
H      -0.679175     -1.074025      0.909439
H      -1.297869     -1.094992     -1.121568
H      -0.311816      0.485087      1.668570
H       1.575449     -1.187370     -0.077698
H       1.957934      0.415064      0.613532
H      -0.702564      1.781556     -0.396334
