11
Extracted from Q-Chem output
C      -1.464145     -0.330696     -0.414305
C      -0.139767     -0.018441      0.745675
C       1.199498     -0.196587      0.042413
O       0.759284      0.542851     -1.099200
C      -0.527655      0.780471     -0.477875
H      -1.017511     -0.873278      0.749162
H      -1.069601     -1.157606     -1.019200
H      -0.290802      0.361027      1.748580
H       1.499244     -1.220504     -0.191114
H       2.011701      0.324030      0.555667
H      -0.840411      1.817388     -0.481997
