12
Extracted from Q-Chem output
O      -2.087417     -0.640738      1.794362
C      -1.232174     -0.787702      0.968468
C      -0.418335      0.343548      0.389024
C       1.069125      0.130611      0.290192
C      -0.502224      0.417990     -1.121366
C       0.772595      0.026274     -1.479829
N       1.863460     -0.397779     -1.747925
H      -1.011057     -1.784897      0.530712
H      -0.639837      1.273695      0.917405
H       1.524128     -0.797188      0.619575
H       1.685355      1.011162      0.406905
H      -1.105167      1.102155     -1.697824
