20
smiles: [C-:2]1([H:11])[C:3]([H:13])([H:14])[N+:4]12[C:5]([H:15])([H:16])[C@:6]2([C:7]([H:18])([H:19])[H:20])[H:17].[C:1]([H:8])([H:9])([H:10])[H:12]
C        2.64278000      -0.14107200       1.10862800
C        0.19014000      -0.72998900      -1.55100400
C        0.47976500       0.74178300      -1.73697000
N       -0.62030900       0.34639600      -0.88685200
C       -1.97971800       0.78608700      -0.71729700
C       -1.05222600       0.62832200       0.45658600
C       -1.15424200      -0.53277000       1.39705400
H        2.11296300       0.71608400       1.52134500
H        3.58624600       0.19041700       0.67748800
H        2.83920400      -0.86245700       1.90031300
H       -0.42898500      -1.06693000      -2.39140000
H        2.03409000      -0.60748100       0.33552900
H        0.15879700       1.31135300      -2.60877900
H        1.32474500       1.18200500      -1.21223200
H       -2.73280800       0.02588000      -0.88770700
H       -2.22121500       1.78259400      -1.06732200
H       -0.65120200       1.55156300       0.86338000
H       -1.82601500      -0.29570600       2.22340400
H       -1.52475100      -1.41528600       0.87572900
H       -0.17096400      -0.77819700       1.79939300
