20
Extracted from Q-Chem output
C       3.469530     -0.176743     -0.037202
C       1.078437     -0.738050      0.320195
C       0.559994      0.463046     -0.435386
N      -0.833899      0.056250     -0.535600
C      -1.794971      1.085874     -0.896440
C      -1.741248      0.544868      0.481880
C      -2.761520     -0.417276      1.016742
H       3.544692      0.908252     -0.054557
H       3.364044     -0.570295     -1.043525
H       4.340412     -0.616674      0.446290
H       1.212042     -1.539165     -0.424374
H       2.604768     -0.455646      0.644503
H       0.950345      0.601995     -1.450070
H       0.683393      1.402950      0.123135
H      -2.580421      0.774741     -1.576351
H      -1.411444      2.088494     -1.063720
H      -1.293044      1.205083      1.222152
H      -3.594436      0.115220      1.480884
H      -3.152764     -1.042148      0.212995
H      -2.308680     -1.069941      1.765516
