14
Extracted from Q-Chem output
C       2.153761      0.015238      0.185832
N       1.099053      0.288109     -0.760890
C      -0.207105      0.191194     -0.362706
N      -1.180542      0.742872     -1.104871
N      -2.439650      0.388192     -0.459571
C      -2.107698     -0.340539      0.609390
C      -0.738214     -0.442384      0.763015
H       2.109772     -1.027999      0.506154
H       3.115532      0.167805     -0.300970
H       2.106953      0.651452      1.078481
H       1.266660      1.031448     -1.416743
H      -2.066139      0.008457     -1.559856
H      -2.887675     -0.745938      1.238442
H      -0.203998     -0.917518      1.569657
