14
Extracted from Q-Chem output
C       2.392246     -0.280599      0.432604
N       1.674458      0.614540     -0.442138
C       0.414370      0.707910     -0.402671
N      -2.012642      0.068890     -1.976152
N      -2.489418     -0.022000     -0.867368
C      -1.781334     -0.207979      0.380966
C      -0.497808      0.069234      0.568932
H       3.027903     -0.918729     -0.184000
H       3.058463      0.310099      1.065668
H       1.775081     -0.927791      1.065030
H      -0.054532      1.362794     -1.133988
H      -3.517179      0.028906     -0.705883
H      -2.417177     -0.586334      1.174221
H      -0.109422     -0.138248      1.559162
