14
Extracted from Q-Chem output
C       2.366603     -0.116648      0.320757
N       1.408688      0.715658     -0.367943
C       0.183965      0.516913     -0.203716
N      -1.085399      0.308045     -1.659042
N      -2.109404     -0.054206     -0.960600
C      -1.886909     -0.474685      0.335060
C      -0.643892     -0.193000      0.755478
H       1.908382     -0.947542      0.874668
H       3.066048     -0.538174     -0.404817
H       2.952180      0.486230      1.019416
H      -0.508804      1.296167     -0.836317
H      -3.027082      0.342961     -1.161227
H      -2.716376     -0.854145      0.914940
H      -0.309943     -0.369817      1.767146
