12
smiles: [H:11][H:12].[O:1]([C@@:2]1([H:8])[C:3]([H:9])([H:10])[C:4]1=[C:5]=[O:6])[H:7]
O       -2.08994800       0.43164000       0.17410900
C       -0.85008900      -0.14660300      -0.07386900
C        0.15584800       0.57989700      -0.92745800
C        0.31637000       0.48728200       0.53999100
C        0.96974400       0.76101400       1.61099500
O        1.55577400       1.01042200       2.58122000
H       -2.67232100       0.22569800      -0.56081800
H       -0.85440000      -1.23461200      -0.11241600
H        0.82707000       0.00108700      -1.55322000
H       -0.15610200       1.53927100      -1.32640300
H        1.76938200      -1.98215900      -0.05352400
H        1.91613100      -2.51306500      -0.55449300
