12
Extracted from Q-Chem output
O      -1.706322      0.876544      0.570516
C      -1.090284     -0.116049     -0.180157
C       0.045381      0.255140     -1.131223
C       0.292844     -0.451143      0.146891
C       1.191209     -0.318876      1.188249
O       1.316870     -0.432666      2.361963
H      -2.382568      1.292148      0.031182
H      -1.736950     -0.934841     -0.490354
H       0.125332     -0.287728     -2.066395
H       0.295231      1.308895     -1.180112
H       1.732497     -1.131092      0.113710
H       2.348465     -0.432902      0.476062
