15
Extracted from Q-Chem output
O       2.646525      0.291222     -1.155498
C       1.412605     -0.057916     -0.752763
C       0.960794     -0.864743      0.431585
C      -0.477395     -0.635176     -0.159471
C      -1.443068      0.053776      0.751228
C      -1.837946      1.312518      0.637777
C       0.200400      0.159308     -1.257491
H       3.291227     -0.026837     -0.521283
H       1.118216     -0.401059      1.408084
H       1.291875     -1.905903      0.457340
H      -0.913837     -1.580006     -0.501292
H      -1.472022      1.949355     -0.160210
H      -1.834808     -0.553388      1.565362
H      -2.538516      1.750009      1.338569
H      -0.174040      0.674009     -2.130380
