15
Extracted from Q-Chem output
C       0.408849      0.967097      0.241445
C       1.013277      0.047550     -0.775803
C       0.768322     -2.135910      0.438911
O       0.117886     -1.803633      1.399415
C      -2.077668      1.119579      0.433610
C      -0.957891      1.417969     -0.204527
C       1.164009     -1.275967     -0.693345
H       0.338608      0.478590      1.209767
H       1.059053      1.843525      0.336082
H       1.354994      0.523897     -1.692672
H       1.119029     -3.184707      0.351863
H      -2.068232      0.517768      1.335688
H      -3.039345      1.463933      0.072874
H      -0.999367      2.010245     -1.115940
H       1.631318     -1.799521     -1.521333
