15
Extracted from Q-Chem output
C       0.738942      1.165969      0.306011
C       1.488550      0.052393     -0.366553
C       0.125604     -1.602370      0.271166
O      -0.525771     -1.321407      1.267973
C      -1.661353      0.330039      0.502442
C      -0.594520      0.712211     -0.324377
C       0.360878     -0.664058     -0.865104
H       0.699590      1.179888      1.402275
H       1.071715      2.152791     -0.029204
H       2.456264      0.128244     -0.843053
H       0.576184     -2.591999      0.146336
H      -1.710622      0.598954      1.545579
H      -2.563378     -0.086675      0.068419
H      -0.848483      1.173998     -1.276967
H       0.356667     -1.141533     -1.851057
