13
Extracted from Q-Chem output
C      -1.114199     -0.795607     -1.053546
N      -0.993181     -0.985472      0.502806
C      -0.098384     -0.104959     -0.266188
C       0.158233      1.324242      0.210011
O       1.555946      1.045085      0.361967
C       1.413797     -0.266591     -0.211730
H      -0.652975     -1.883109      0.810595
H      -1.985748     -0.144255     -1.184974
H      -1.610009     -0.530507      1.160376
H      -0.311787      1.635598      1.149327
H      -0.026596      2.081767     -0.557556
H       1.809926     -1.050872      0.440478
H       1.876495     -0.336888     -1.199690
