15
Extracted from Q-Chem output
C      -2.046263      1.213673      0.225387
N      -0.625173      0.910206      0.295692
C      -0.221726     -0.273875     -0.353668
C       1.933595     -0.094850     -0.586400
O       2.579032     -1.067072     -0.113269
C       0.014322     -1.458881      0.292579
N       0.671731     -2.339310      0.745993
H      -2.344976      1.297159     -0.821204
H      -2.678994      0.453665      0.701999
H      -2.231003      2.176500      0.701724
H      -0.281175      0.948536      1.244233
H      -0.573547     -0.363580     -1.376840
H       1.865898      0.844776     -0.024765
H       1.833886      0.000660     -1.674555
H       1.741632     -1.948556      0.499688
