11
Extracted from Q-Chem output
C      -1.948337      0.699743      0.144631
C      -0.250294     -0.730116     -0.536697
O      -0.561119      0.365617      0.118392
N       1.093035     -0.919002     -0.474819
C       2.080291     -0.151193      0.144692
O       3.238720     -0.458214      0.111134
H      -2.509520     -0.043164     -0.419991
H      -2.065511      1.688915     -0.296612
H      -2.273135      0.719519      1.184445
H       1.437738     -1.740839     -0.947434
H       1.696136      0.741677      0.651587
