11
Extracted from Q-Chem output
C      -1.763669      0.376166      0.113871
C      -0.309793     -0.244164     -0.842786
O      -0.385918      1.037752     -0.808507
N       0.862427     -0.773303     -0.336799
C       1.937393     -0.085396      0.205986
O       2.932776     -0.637996      0.590361
H      -2.560423      0.252894     -0.603269
H      -1.786865      1.321513      0.655319
H      -1.690631     -0.448213      0.822425
H       0.975016     -1.773872     -0.398516
H       1.783283      0.999894      0.249190
