18
Extracted from Q-Chem output
C      -1.469266     -0.242612     -1.638235
C      -1.050520     -0.068093     -0.183574
C       0.436057     -0.317909      0.057350
C       1.186024      1.560511      1.449676
N       0.958991      0.132278      1.337856
C       0.827096     -1.784230     -0.046457
O       0.062993     -2.694067     -0.213398
H      -0.914502      0.437678     -2.289843
H      -1.290457     -1.262543     -1.979363
H      -2.531544     -0.029979     -1.767148
H      -1.284486      0.948717      0.144304
H      -1.625076     -0.748656      0.451477
H       1.022652      0.196018     -0.717647
H       0.300167      2.179660      1.248715
H       1.538413      1.791619      2.455306
H       1.969771      1.857664      0.749611
H       0.361343     -0.194207      2.085472
H       1.912107     -1.962289      0.093619
