12
Extracted from Q-Chem output
O      -1.318169      1.486965      0.004130
C      -1.001730      0.189692      0.377639
C      -0.357732     -0.683436     -0.657773
C       0.352606     -0.096168      0.897434
C       1.592892      0.714293      0.669934
C       1.446743     -0.029095     -0.395238
H      -0.508044      2.008312     -0.003902
H      -1.808093     -0.260681      0.946775
H      -0.352084     -0.277629     -1.659665
H      -0.520921     -1.752111     -0.589876
H       0.421266     -0.928843      1.594828
H       1.985095     -0.531543     -1.180201
