13
smiles: [H:7][H:9].[N:1]#[C:2][H:8].[O:3]=[C:4]1[C:5]([H:10])([H:11])[C:6]1([H:12])[H:13]
N        3.23299100      -1.21391000       0.24524500
C        2.60990400      -0.25494500       0.23553300
O        0.31556700       1.74852700       0.02724500
C       -0.57526600       0.95944500       0.03571500
C       -0.99210100      -0.43546300       0.18883100
C       -2.01235400       0.71285700      -0.09488900
H        1.27149900      -0.49745400      -2.48703700
H        2.02862700       0.64134500       0.22669000
H        0.76297500      -0.29272900      -2.99087400
H       -0.78471500      -1.13216100      -0.61493700
H       -0.99117700      -0.87205100       1.18074600
H       -2.66842600       1.01267900       0.71387900
H       -2.45878900       0.75241000      -1.08164300
