12
Extracted from Q-Chem output
C      -1.761478      0.606934     -0.164986
C      -0.567082     -0.235652      0.241620
C       0.753760      0.474890      0.075259
C       1.932769     -0.300984      0.463155
C       2.887475     -0.947442      0.787687
O       0.864287      1.598609     -0.342985
H      -1.818454      1.517712      0.431112
H      -1.689962      0.906688     -1.210627
H      -2.686827      0.046147     -0.029954
H      -0.508322     -1.163939     -0.336906
H      -0.631010     -0.555382      1.287340
H       3.746564     -1.509323      1.072370
