13
smiles: [C:1](=[C:2]([H:8])[H:10])([H:7])[H:9].[C:3](=[C:4]([C:5]#[N:6])[H:13])([H:11])[H:12]
C        1.74123600       1.10083700       0.40329400
C        2.10062000       0.14762800      -0.43904500
C       -1.42584700      -1.01976000       0.91379000
C       -2.14599700      -0.56499700      -0.10259600
C       -1.57422800       0.21448500      -1.16010700
N       -1.13128000       0.84058000      -2.01509900
H        0.94959300       1.80220600       0.16560300
H        2.89227400      -0.55372100      -0.20133000
H        2.22412400       1.21956800       1.36664000
H        1.61773000       0.02888600      -1.40238500
H       -0.36427800      -0.82183900       0.99136900
H       -1.88835400      -1.60487000       1.69787800
H       -3.20848300      -0.76170300      -0.18277100
