13
Extracted from Q-Chem output
C       1.125059      0.903095     -0.077524
C       0.711138     -0.457688     -0.076751
C      -0.498655     -0.891216      0.712874
C      -1.493048     -0.452223     -0.322747
C      -1.404067      0.885655     -0.587825
N      -1.007902      1.989842     -0.634226
H       1.737495      1.293809     -0.878527
H       1.784635     -0.234979      0.499599
H       0.965003      1.512205      0.800597
H       0.961726     -1.048570     -0.950904
H      -0.569097     -0.369110      1.669123
H      -0.524156     -1.964734      0.884639
H      -1.918561     -1.151697     -1.024867
