16
Extracted from Q-Chem output
C       1.936170     -0.079461      0.397196
C       0.951341      0.853352      0.182280
C      -0.650005     -0.107852     -0.918151
O      -0.219746     -1.121962     -1.504545
C      -1.690148     -0.341211      0.181653
C      -2.156294      0.878042      0.828977
N      -2.505652      1.852089      1.323848
H       2.865390     -0.037187     -0.157929
H       1.978915     -0.628148      1.331082
H       1.644309     -1.438639     -0.391999
H       1.127574      1.626677     -0.553385
H       0.296682      1.124118      0.999708
H      -0.733459      0.833608     -1.468089
H       0.982039     -1.564358     -0.896239
H      -1.290734     -1.030287      0.927922
H      -2.546158     -0.836895     -0.284120
