16
Extracted from Q-Chem output
C       0.697308     -1.479195      0.265230
C       0.148830     -0.279770      0.979611
N       0.758665      0.988913      0.740095
C       0.062358      2.145289      0.607788
O       0.560066      3.242154      0.522643
C      -0.655009     -0.952884     -0.104396
C      -0.881492     -0.310024     -1.446917
H      -1.029824      1.977940      0.572356
H       0.778585     -2.406652      0.815279
H       1.498044     -1.296668     -0.441401
H      -0.189661     -0.443120      1.998132
H       1.756790      1.083596      0.843409
H      -1.497347     -1.524683      0.268803
H      -0.020346      0.282628     -1.757248
H      -1.753586      0.347408     -1.430751
H      -1.054656     -1.073126     -2.208003
