16
Extracted from Q-Chem output
C       1.338179     -0.653141     -0.134182
C       0.218127     -0.410029      0.774415
N       0.419892      0.806719      1.522108
C       0.288508      1.697413      0.427155
O       0.265919      2.887708      0.435247
C      -1.074077     -0.099612      0.110188
C      -1.365634     -0.596203     -1.244344
H       0.575094      1.038025     -0.537654
H       1.317693     -1.509213     -0.802554
H       2.324451     -0.346001      0.195409
H       0.020227     -1.297529      1.403810
H       1.263070      0.889450      2.080613
H      -1.898370      0.116433      0.784230
H      -0.530980     -0.343411     -1.915197
H      -2.303591     -0.203253     -1.632980
H      -1.426452     -1.693384     -1.264604
