14
Extracted from Q-Chem output
C       0.680696      0.735947     -0.117543
C       1.170293     -0.746032      1.107871
C      -0.764021      1.229985     -0.091083
O      -1.544357      0.223427     -0.689349
C      -1.024894     -1.002059     -0.203620
C       0.495220     -0.837379     -0.165030
H       1.273596      1.038838     -0.976595
H       1.205082      1.068618      0.803013
H       2.256331     -0.787601      0.910659
H      -0.895040      2.152043     -0.657501
H      -1.076090      1.395749      0.947746
H      -1.347232     -1.793945     -0.879304
H      -1.393890     -1.205009      0.808750
H       1.002517     -1.250483     -1.038074
