16
smiles: [C:1](/[C:2](=[C:3](/[C:5]([O:6][H:16])([H:14])[H:15])[H:12])[H:11])([H:7])([H:8])[H:9].[O:4]([H:10])[H:13]
C       -2.23908200      -0.90582900       0.38409400
C       -1.00107200      -0.06861000       0.41435900
C        0.23684600      -0.53890200       0.43731400
O        0.52501300       1.39501400      -2.47747400
C        1.45844000       0.31662900       0.49323700
O        2.30001700      -0.02276600      -0.59848400
H       -2.84300900      -0.67526600      -0.49735400
H       -2.00020300      -1.96994800       0.36619800
H       -2.86652100      -0.71035400       1.25772500
H       -0.26959400       0.85980000      -2.48534500
H       -1.14712000       1.01037400       0.41774000
H        0.41425600      -1.61188100       0.41716900
H        1.17774100       0.87473000      -2.00742900
H        1.98318500       0.14316200       1.44299200
H        1.17191800       1.37551000       0.45867500
H        3.14724000       0.40788900      -0.47715100
