16
Extracted from Q-Chem output
C      -2.179915     -0.754835      0.201211
C      -0.999623      0.184089      0.105780
C       0.305925     -0.313328     -0.107393
O       0.269035      0.070826     -1.946642
C       1.489963      0.456273      0.370719
O       2.633893      0.133079     -0.388565
H      -3.106108     -0.249677     -0.078810
H      -2.058118     -1.598088     -0.482816
H      -2.321808     -1.162244      1.207173
H      -0.663397      0.487171     -1.234746
H      -1.062377      1.111942      0.671274
H       0.476929     -1.374535     -0.256136
H       0.958475      0.662558     -2.272980
H       1.625229      0.185920      1.427653
H       1.265351      1.529270      0.326663
H       3.398625      0.547684      0.012984
