9
Extracted from Q-Chem output
O       2.013399      0.111681     -0.137504
C       0.680089      0.012387     -0.049550
C      -0.242209      1.058088      0.098972
N      -1.452138      0.519183      0.143656
N      -1.233586     -0.764586      0.026568
N       0.033291     -1.135310     -0.093912
H       2.374938     -0.774361     -0.233518
H      -0.084311      2.120168      0.172363
H      -1.981165     -1.434705      0.027410
