9
Extracted from Q-Chem output
O       2.031897      0.262399     -0.120497
C       0.725589     -0.031389     -0.050830
C      -0.331996      0.827604      0.074413
N      -1.392376     -0.015671      0.092867
N      -1.027173     -1.278961     -0.010937
N       0.267805     -1.297467     -0.099375
H       2.507273     -0.570003     -0.206336
H      -0.411796      1.896808      0.147287
H      -2.369224      0.206681      0.173409
