9
Extracted from Q-Chem output
O       1.968149      0.184159     -0.229087
C       0.667131     -0.021601     -0.027052
C      -0.331038      0.935802      0.063578
N      -1.460583      0.291442      0.364858
N      -1.132164     -1.083514      0.395666
N       0.140170     -1.233697      0.115029
H       2.408228     -0.672189     -0.241660
H      -0.285624      2.005603     -0.049744
H      -1.923688     -0.542789     -0.417654
