16
Extracted from Q-Chem output
C       1.602138     -0.616828      0.175995
C       0.810353      0.407047     -0.556151
C      -0.598256      0.285804     -0.721970
C      -1.340804     -0.988300     -0.428402
C      -0.405851      1.200919      0.742494
O      -0.614151      0.590115      1.810033
H       1.557110     -1.569762     -0.355957
H       2.643538     -0.323492      0.294863
H       1.141982     -0.767026      1.161016
H       0.735041      1.558199      0.578699
H       1.340514      1.118580     -1.181827
H      -1.017163      0.908767     -1.504169
H      -1.384467     -1.136718      0.654771
H      -2.360675     -0.925823     -0.806271
H      -0.866434     -1.858764     -0.886400
H      -0.877941      2.135897      0.416744
