16
smiles: [C:1]([C+:2]1[C:3](=[C:4]([H:11])[H:12])[C-:5]=[C:6]([H:15])[N:7]1[H:16])([H:8])([H:9])[H:10].[H:13][H:14]
C       -1.40435000       1.70844500      -0.53926400
C       -0.19048400       0.92748200      -0.18951200
C       -0.05077300      -0.44481400       0.33405300
C       -1.10726200      -1.22067700       0.59028500
C        1.38293100      -0.78931200       0.51430800
C        1.98511400       0.34453000       0.10647800
N        1.02471600       1.35825100      -0.31004300
H       -1.93531500       1.23128600      -1.36549500
H       -1.16118300       2.72973700      -0.83227600
H       -2.08821600       1.74890800       0.31002200
H       -0.95032100      -2.22225300       0.97235700
H       -2.12986300      -0.89196700       0.43050200
H        1.16175400      -4.28060100       0.31152200
H        1.32666200      -3.56193000       0.41541900
H        3.02428000       0.63362700       0.03245300
H        1.25491100       2.28113800      -0.65087000
