16
Extracted from Q-Chem output
C      -1.359274      1.591513     -0.206759
C      -0.131431      0.768361     -0.030807
C       0.023536     -0.628206      0.076467
C      -0.966398     -1.593611      0.010745
C       1.430680     -0.916317      0.118404
C       2.064308      0.255234     -0.098374
N       1.100273      1.276979     -0.198833
H      -2.204724      1.133236      0.305546
H      -1.625715      1.701872     -1.260824
H      -1.215351      2.591858      0.206759
H      -0.833402     -2.494923     -0.566285
H      -1.992324     -1.360356      0.285627
H       0.361532     -2.830931      0.931038
H       1.077686     -2.397378      0.688330
H       3.108406      0.524557     -0.057889
H       1.297945      2.265111     -0.186542
