13
Extracted from Q-Chem output
C      -1.061821     -0.720578      1.126188
C      -0.043960     -0.880756      0.010616
N      -0.299732      0.056693     -1.094010
C       0.338063      1.131991     -1.401904
C       1.472637      1.567271     -0.625011
O       2.622687      1.216388     -0.795891
H      -1.009736      0.279673      1.558896
H      -0.869458     -1.445775      1.917740
H      -2.078794     -0.882819      0.762780
H      -0.072940     -1.892182     -0.400712
H      -1.090264     -0.193886     -1.675617
H       0.970485     -0.698238      0.362235
H       1.219470      2.387919      0.085320
