10
Extracted from Q-Chem output
O       1.719485      1.991552     -2.296103
C      -1.832802     -0.723135      1.000553
N      -0.720078     -0.823302      0.334994
C       0.452528     -0.024310      0.681915
C       0.938759      0.761665     -0.453611
N       1.321132      1.363808     -1.357988
H      -2.537440     -1.439258      0.543443
H      -0.575746     -1.447035     -0.455836
H       0.145344      0.627603      1.499568
H       1.256085     -0.675363      1.035698
