14
Extracted from Q-Chem output
C       1.353488      0.929504      0.152883
C       0.428224     -0.164100      0.659433
O       0.110884      0.022205      2.029852
C      -0.862085     -0.307531     -0.115419
C      -1.100394      0.251540     -1.441160
O      -1.620269      0.885554     -0.284025
H       0.829726      1.886757      0.097902
H       1.750789      0.692631     -0.835572
H       2.191496      1.033982      0.841378
H       0.946998     -1.126143      0.619893
H      -1.463763     -1.159831      0.193926
H      -1.841308     -0.210739     -2.086887
H      -0.312640      0.796360     -1.952028
H      -0.433125      0.811965      2.097787
