18
Extracted from Q-Chem output
C       2.740455      0.613246      0.090288
O       1.517302      0.989737     -0.488818
C       0.651766     -0.087351     -0.668854
C      -0.097831     -0.648759      0.557579
N      -1.314152     -0.675461     -0.261792
C      -2.564232     -0.340378      0.367428
C      -0.730016      0.288778     -1.201992
H       3.352126      1.510374      0.173000
H       3.267921     -0.122361     -0.530933
H       2.600551      0.186018      1.091493
H       1.131904     -0.880320     -1.254915
H       0.203655     -1.611653      0.975694
H      -0.133428      0.109254      1.355552
H      -2.533635      0.636201      0.880925
H      -2.825322     -1.104905      1.102008
H      -3.359176     -0.308157     -0.380515
H      -0.955118      1.334455     -0.945840
H      -0.952769      0.111282     -2.255726
