15
Extracted from Q-Chem output
N       2.275903     -0.458507     -0.016941
C       1.023639      0.137535      0.379211
C       1.114976      1.563014      0.796473
N       1.205279      2.666604      1.099489
C       0.053552      0.255869     -0.759129
C      -1.337062      0.306644     -0.299317
C      -1.760525     -1.179813     -0.477085
H       3.016451     -0.280378      0.647207
H       2.544959     -0.113743     -0.929163
H       0.607285     -0.405481      1.241094
H      -1.683410     -1.489335     -1.517905
H      -1.499945      0.603985      0.745325
H      -1.958204      0.912294     -0.959403
H      -2.796245     -1.274872     -0.152933
H      -1.152719     -1.852734      0.129441
