15
Extracted from Q-Chem output
N       1.929377     -0.630917     -0.183994
C       0.840142      0.165581      0.340558
C       1.215513      1.557749      0.687187
N       1.532600      2.625240      0.964248
C      -0.255942      0.326571     -0.710142
C      -1.586098      0.434213     -0.103583
C      -1.441422     -1.067847     -0.372981
H       2.735072     -0.622185      0.426707
H       2.200600     -0.275181     -1.092186
H       0.494886     -0.292185      1.279781
H      -0.448576     -1.159770     -0.976012
H      -1.665630      0.664462      0.959303
H      -2.355067      0.924261     -0.690504
H      -2.143435     -1.445847     -1.108166
H      -1.338156     -1.670866      0.523054
