11
Extracted from Q-Chem output
N      -1.275108      1.067889      0.385912
C      -1.034866     -0.191171      0.068554
O      -1.945151     -0.979399     -0.365917
C       0.224961     -0.906256      0.057409
C       1.444376     -0.203140     -0.175563
C       2.456349      0.408311     -0.395294
H      -2.168079      1.482194      0.184257
H      -0.527484      1.640049      0.736064
H       0.256843     -1.631064      0.870419
H      -0.910859     -1.603772     -0.641539
H       3.360272      0.927272     -0.607411
