18
Extracted from Q-Chem output
C       1.695068     -1.501232      0.921017
C       0.918513     -0.482415      0.128832
C      -0.845067      2.028988     -0.574016
C      -1.335090      0.905458      0.330526
C      -0.572175     -0.401284      0.249413
C       0.049849     -0.912755     -1.019364
H       1.908088     -1.142933      1.931080
H       2.647657     -1.736317      0.440221
H       1.132024     -2.433398      1.010969
H       1.433287      0.462010     -0.014823
H      -1.444753      2.927646     -0.421083
H       0.194551      2.293583     -0.370148
H      -1.313467      1.250017      1.369867
H      -2.386543      0.702367      0.102563
H      -1.005008     -1.175908      0.876351
H      -0.923221      1.762768     -1.629946
H      -0.024066     -1.973328     -1.228114
H       0.024344     -0.285804     -1.901317
