18
Extracted from Q-Chem output
C       1.617873     -0.319826      0.960091
C       1.033218     -0.254562     -0.409101
C      -0.337067      1.440614     -0.140433
C      -1.374721      0.500318      0.474613
C      -1.379709     -0.474647     -0.659664
C      -0.044004     -1.172736     -0.829504
H       0.854906     -0.484618      1.725172
H       2.166823      0.593727      1.201326
H       2.330493     -1.147323      1.037184
H       1.732767      0.072259     -1.175129
H      -0.864456      2.315997     -0.539263
H       0.498569      1.846168      0.436030
H      -1.113547      0.128231      1.475315
H      -2.349064      0.985864      0.567313
H      -2.278347     -1.070790     -0.838592
H      -0.440690      0.849967     -1.209678
H      -0.005502     -2.022849     -0.128061
H       0.072043     -1.577724     -1.837176
