17
Extracted from Q-Chem output
C      -1.316747     -0.398077      1.021607
C      -0.485131      0.389908      0.021414
C      -0.941917      0.202573     -1.417081
N       0.966147      0.075284      0.165991
C       1.740928      1.093458      0.521868
C       1.338419     -1.173874     -0.072755
H      -1.353276     -1.459310      0.774607
H      -0.910761     -0.291460      2.028170
H      -2.339026     -0.015629      1.018910
H      -0.561429      1.447353      0.270511
H      -0.957811     -0.848843     -1.704665
H      -0.284220      0.739303     -2.101581
H      -1.952905      0.598876     -1.527841
H       1.296423      2.059150      0.679763
H       2.798927      0.922784      0.641670
H       0.596807     -1.900702     -0.349753
H       2.379868     -1.433512      0.022907
