17
Extracted from Q-Chem output
C      -1.426402     -0.826950      0.659233
C      -0.608035      0.353553      0.167414
C      -1.038016      0.816485     -1.214431
N       0.810519     -0.001409      0.160765
C       1.866184      0.658385     -0.358783
C       1.507110     -0.915370      0.882871
H      -1.354394     -1.665507     -0.037557
H      -1.085909     -1.165720      1.638918
H      -2.475830     -0.542731      0.742723
H      -0.736845      1.186788      0.872806
H      -0.975133     -0.006428     -1.930311
H      -0.398261      1.624137     -1.572555
H      -2.066328      1.181288     -1.190583
H       1.983017      1.735118     -0.225529
H       2.523813      0.139351     -1.038111
H       1.306921     -1.980844      0.779634
H       2.181883     -0.582860      1.657234
