11
Extracted from Q-Chem output
N       2.634545     -0.201356     -0.047083
C       1.438170     -0.116277      0.306508
C      -1.089881      1.615354     -1.272857
C      -1.437842      0.741182     -0.390134
C      -0.877497     -0.516618      0.203225
O       0.419535     -0.806507     -0.268677
H       2.743632     -0.838332     -0.834653
H       1.138447      0.532867      1.131854
H      -2.415923      1.116540     -0.047814
H      -1.501638     -1.365080     -0.077001
H      -0.884198     -0.441877      1.295916
