11
Extracted from Q-Chem output
N       2.436972      0.023101     -0.156095
C       1.196045     -0.004270     -0.146966
C      -0.267407      1.575422     -0.354285
C      -1.221016      0.731171     -0.037817
C      -1.000313     -0.723464      0.239385
O       0.371157     -1.020151      0.062873
H       2.866324     -0.874833      0.056796
H       0.867859      1.241123     -0.511723
H      -2.236497      1.108353      0.024574
H      -1.570457     -1.357065     -0.443528
H      -1.275315     -0.979490      1.266072
