12
smiles: [C:3](#[C:4][H:8])[N:7]([C:5](=[C:6]([H:10])[H:11])[H:9])[H:12].[O+:1]#[C-:2]
O        0.64717300      -2.25344700       1.90468800
C        0.87037700      -2.47779300       0.82678300
C        1.31333100       0.89381700       0.15468500
C        2.49951400       1.01601400       0.02741900
C       -0.81536700       0.13362700      -0.65972300
C       -2.12953000      -0.02135600      -0.55957100
N       -0.01132900       0.75566100       0.28853300
H        3.55064700       1.12732300      -0.08490500
H       -0.26003100      -0.22662400      -1.51734700
H       -2.69079400       0.33650500       0.29564800
H       -2.67365200      -0.51867100      -1.34818400
H       -0.44291300       1.12005200       1.12031900
