9
Extracted from Q-Chem output
C       0.050717      1.020804      0.432039
C       0.767929      0.218935     -0.373827
N       1.048435     -1.160345      0.646214
N      -0.042009     -1.673291      0.676802
N      -1.115762     -1.276007      0.195936
C      -0.781284      0.101460     -0.271299
H       0.049458      1.956352      0.967647
H       1.577896      0.368574     -1.073338
H      -1.556406      0.458906     -0.938228
