11
Extracted from Q-Chem output
N      -1.621480     -0.630350     -0.148150
C      -0.310791     -0.093458      0.033122
C       0.833849     -0.998016     -0.102998
N       2.033019     -0.590196     -0.165167
N       0.055315      2.282550      0.813426
C      -0.103415      1.172218      0.354998
H      -1.981182     -0.494143     -1.082074
H      -2.287397     -0.276479      0.521111
H       0.537098     -2.052561     -0.145302
H       2.677323     -1.372481     -0.228731
H       0.249645      3.031011      0.154327
