17
Extracted from Q-Chem output
C      -2.310158     -0.126270      0.278162
C      -0.980007      0.135318     -0.393413
C       0.071343      0.999050      0.343667
C       1.143063      0.062486     -0.212183
C       3.447136     -0.152511      0.448239
O       2.195021     -0.299518      0.707179
C       0.070000     -1.000635     -0.440884
H      -2.166185     -0.519883      1.287379
H      -2.898500      0.790725      0.355616
H      -2.899074     -0.853569     -0.285063
H      -1.139925      0.530133     -1.400130
H       0.147656      2.060036      0.109248
H      -0.009428      0.869452      1.425038
H       3.516378      0.286694     -0.587545
H       1.613478      0.424850     -1.130392
H      -0.009350     -1.640311      0.440637
H       0.143200     -1.619060     -1.334434
