15
Extracted from Q-Chem output
N      -2.103714     -0.599163      0.584091
C      -0.869485     -0.035113      0.588311
C       0.113574     -0.223865     -0.499654
C       1.573669      0.088415     -0.397817
O       2.014155      0.356891      0.903152
C      -0.821632      1.424190      0.072795
N      -0.871208      2.546764     -0.182275
H      -2.462570     -0.657539     -0.368791
H      -1.110858     -2.052616      0.081636
H      -0.388056     -0.012201      1.568163
H      -0.292272     -0.329052     -1.502716
H      -0.399440     -2.124421     -0.289255
H       1.833038      0.892739     -1.096190
H       2.096934     -0.806985     -0.751256
H       1.899741      1.291560      1.089423
