16
Extracted from Q-Chem output
C      -0.584210      1.279502     -0.639544
C      -0.595309     -0.004074      0.161044
C      -1.579889     -1.019088     -0.376914
C       1.967768     -0.144378     -0.794868
C       1.848713      0.007559      0.671739
O       0.686419     -0.699135      0.182768
H       0.176837      1.978209     -0.294987
H      -1.560835      1.756364     -0.529594
H      -0.395154      1.078443     -1.692263
H      -0.810254      0.210132      1.213663
H      -2.588869     -0.604939     -0.355915
H      -1.565870     -1.932455      0.217753
H      -1.330474     -1.269152     -1.409564
H       2.432909     -1.127641     -0.959931
H       2.379036     -0.610499      1.396629
H       1.603970      0.993029      1.068905
