14
Extracted from Q-Chem output
C       2.001327     -0.041113      0.412806
O       0.753263      0.505903      0.757866
C      -0.197265      0.364132     -0.251999
C      -0.879521     -1.005307     -0.417526
O      -2.172093     -0.412132     -0.231518
C      -1.590219      0.846335      0.141143
H       1.936187     -1.123674      0.245538
H       2.405871      0.427884     -0.493411
H       2.680832      0.145715      1.242617
H       0.176140      0.782836     -1.194495
H      -0.630624     -1.707218      0.386057
H      -0.794625     -1.501991     -1.386874
H      -1.676489      1.039705      1.214567
H      -2.012783      1.678925     -0.424771
