14
Extracted from Q-Chem output
O       2.031239     -0.517538      1.275236
C       2.039690     -0.310272     -0.111315
C       0.723195      0.168739     -0.676693
C      -0.298321      0.513451      0.046382
C      -1.407612      0.840595      0.741606
C      -2.634640     -0.001963      0.267962
N      -2.045707     -0.335781      1.442641
H       1.632547      0.248119      1.696961
H       2.823050      0.402489     -0.406430
H       2.294153     -1.269879     -0.568180
H      -1.569376      1.815338      1.176606
H      -2.562666     -0.718103     -0.560950
H       0.672938      0.232821     -1.764104
H      -1.473796     -1.188238      1.480116
