14
smiles: [C:2]1([H:8])=[C:6]([H:13])[O:5][C:4]([H:11])([H:12])[C:3]1([H:9])[H:10].[O:1]([H:7])[H:14]
O        1.07609500      -2.30391500      -0.73700900
C        0.29099800       1.33576000      -0.41809400
C       -1.03190300       0.61473900      -0.49176700
C       -0.97263100      -0.23693500       0.78807800
O        0.38966100      -0.19183800       1.25380600
C        1.00558200       0.80013200       0.55975000
H        1.04331600      -1.83523900       0.09789900
H        0.62036700       2.11457400      -1.08699700
H       -1.10258000       0.00161000      -1.39543600
H       -1.89235400       1.28612300      -0.48664900
H       -1.23867700      -1.28209500       0.63475000
H       -1.60602400       0.17756900       1.57697600
H        2.01297000       1.02211800       0.88230100
H        1.39108000      -1.66348400      -1.37607900
