14
Extracted from Q-Chem output
C      -0.529262      1.689111     -0.550229
C      -0.137990     -0.770784      0.329967
C       0.095143     -1.625945     -0.870031
O      -1.193906     -1.193694      1.065396
C       0.828341      0.030701      0.889098
C       1.341755      1.141351      1.055997
H      -0.858916      1.531522      0.451908
H       0.331796      1.243059     -0.995095
H      -1.101734      2.387431     -1.156981
H       0.397248     -2.630023     -0.557732
H       0.875871     -1.203842     -1.498836
H      -0.826829     -1.713317     -1.443571
H      -1.260350     -0.661975      1.863747
H       2.071724      1.831294      1.421230
