13
Extracted from Q-Chem output
O      -0.604742     -1.348402      0.742026
C      -1.317128     -0.768220     -0.380536
C      -0.114417      0.124667     -0.690883
C      -0.288959      1.609816     -0.504353
O      -1.348802      2.157264     -0.394241
C       0.505973     -0.586790      0.493305
C       1.652244     -0.562332      1.146436
H       1.814688     -1.199744      2.004610
H      -1.556062     -1.524998     -1.127145
H      -2.212901     -0.239293     -0.057673
H       0.396200     -0.060981     -1.638075
H       0.657876      2.184705     -0.467336
H       2.444908      0.096368      0.822948
