13
Extracted from Q-Chem output
O      -0.487851     -0.801016      1.162079
C      -1.029959     -0.752348     -0.190994
C      -0.028613      0.305714     -0.650322
C      -0.523870      1.733431     -0.531455
O      -1.680305      2.041530     -0.512987
C       0.867045     -0.140381      0.481411
C       1.830880     -0.814151      0.993726
H       0.481691     -1.419755      1.404023
H      -0.928694     -1.711269     -0.699700
H      -2.064504     -0.419401     -0.158542
H       0.437332      0.177347     -1.630251
H       0.276616      2.496321     -0.469146
H       2.879406     -0.802162      0.737490
