14
Extracted from Q-Chem output
C       2.172409      0.424514     -0.442479
O       0.810013      0.100591     -0.504238
C       0.321155     -0.422246      0.706539
C      -1.167939     -0.639526      0.551286
C      -1.914274      0.655696      0.518087
O      -2.923977      0.520951     -0.304527
H       2.463863      0.812392     -1.417641
H       2.786035     -0.457472     -0.213627
H       2.368004      1.190431      0.319173
H       0.508177      0.282277      1.528757
H       0.830690     -1.367671      0.942556
H      -1.543578     -1.128379      1.461632
H      -1.388478     -1.295110     -0.298880
H      -3.425969      1.342963     -0.301379
