14
Extracted from Q-Chem output
N      -2.453845     -0.370700     -0.063966
C      -1.091832     -0.109205     -0.056303
C      -0.003929     -0.856515     -0.211291
C       1.168792      0.086566     -0.271069
N       2.293652     -0.250536      0.583310
C       0.615957      1.471791      0.018987
N      -0.680135      1.255590      0.059225
H      -2.665258     -1.354244     -0.116845
H      -2.958034      0.059163      0.698052
H       0.033072     -1.930235     -0.310741
H       2.880091      0.566696      0.691869
H       2.853031     -0.987429      0.176699
H       1.455771      0.205592     -1.337262
H      -1.353428      1.999582      0.162871
