15
Extracted from Q-Chem output
C      -1.880229     -0.244625     -0.187326
C      -0.698427      0.643540      0.095890
O      -0.243263      0.606990      1.475740
C       1.095602      0.399000      1.049387
C       1.220687     -0.922560      0.353667
C       0.701665      0.280450     -0.383153
O       1.290105      0.809495     -1.510392
H      -1.658954     -1.287648      0.042433
H      -2.738848      0.062392      0.412075
H      -2.157192     -0.167003     -1.241232
H      -0.911189      1.683243     -0.173941
H       1.897243      0.920396      1.553758
H       2.236661     -1.185415      0.082340
H       0.577972     -1.748203      0.637304
H       1.268168      0.149948     -2.206550
