15
Extracted from Q-Chem output
C      -1.809253     -0.292369     -0.281399
C      -0.697458      0.693893     -0.078744
O      -0.180761      0.758470      1.242129
C       1.160582      0.414199      0.981054
C       1.267510     -0.986398      0.399565
C       1.071341      0.184319     -0.493468
O       1.497939      0.596084     -1.656910
H      -1.494045     -1.311728     -0.059394
H      -2.642318     -0.047035      0.381420
H      -2.171006     -0.251353     -1.310454
H      -0.985560      1.704063     -0.409865
H       1.916050      0.887728      1.592778
H       2.286396     -1.349073      0.304320
H       0.523794     -1.742044      0.621874
H       0.230637      0.778528     -1.213127
