14
Extracted from Q-Chem output
C       1.540392      0.400000      0.545444
C       0.357284      0.374528     -0.398437
C      -0.242917     -0.984602     -0.848204
C      -1.642081     -0.525493     -0.436295
O      -1.286169     -0.136796      1.261446
C      -1.028948      0.716803      0.149627
H       1.340319     -0.205418      1.430091
H       1.763151      1.418753      0.870751
H       2.432540      0.001133      0.057919
H       0.551522      0.996162     -1.275715
H       0.115890     -1.888000     -0.354909
H      -0.211356     -1.145944     -1.928113
H      -2.155814     -0.692350      0.854270
H      -1.455066      1.712904      0.234710
