10
Extracted from Q-Chem output
N      -1.845336     -0.197462     -0.181955
C      -0.555011      0.246794     -0.067453
N       0.345834     -0.835375     -0.145661
C       1.540630     -0.707986      0.079541
N       2.702105     -0.728653      0.403266
N      -0.138730      1.440255      0.044320
H      -2.588911      0.426935      0.068567
H      -2.008160     -1.179063     -0.051045
H       3.437145     -0.476323     -0.238209
H      -0.904532      2.105019      0.078801
