13
Extracted from Q-Chem output
C      -1.580521      0.148948     -0.144097
N      -0.489530      0.357025      0.726373
C       0.167725     -0.878112      0.997717
C       1.213912     -0.958867      0.183428
C       1.179223      0.279531     -0.629342
C       0.408249      1.193995      0.123181
H      -2.364566     -0.501144      0.240184
H      -0.046876     -0.090275     -1.243848
H      -1.935985      1.039965     -0.652668
H      -0.303844     -1.602418      1.642693
H       1.883279     -1.791400      0.039823
H       1.974561      0.550941     -1.311688
H       0.020542      2.130335     -0.256279
