16
Extracted from Q-Chem output
C      -0.598772      1.432627     -0.834063
C      -0.464463      0.107154     -0.070346
C      -1.472381     -0.921927     -0.566620
C       0.948994     -0.327727     -0.294233
C       1.895110     -0.041175      0.798466
O       1.483152     -1.400573      1.014350
H       0.107082      2.183376     -0.472964
H      -1.607782      1.829702     -0.712176
H      -0.418282      1.282981     -1.900602
H      -0.644085      0.303918      0.995924
H      -2.494997     -0.557905     -0.442959
H      -1.379961     -1.857841     -0.012673
H      -1.308610     -1.137257     -1.624809
H       1.384812     -1.634935     -0.070287
H       2.955334      0.072554      0.581847
H       1.553450      0.578519      1.625881
