19
Extracted from Q-Chem output
C       2.847226      0.235891      0.057831
O       1.516415      0.449466     -0.323672
C       0.608721     -0.330125      0.417057
C      -0.798266     -0.001011      0.002827
C      -1.214412      1.428732      0.249002
C      -1.343280     -0.708173     -1.200775
C      -1.815388     -1.090813      0.173422
H       3.146189     -0.810377     -0.093965
H       3.010281      0.491213      1.113802
H       3.475139      0.875231     -0.561455
H       0.810970     -1.400011      0.254875
H       0.739707     -0.130628      1.493064
H      -0.580230      2.114535     -0.314675
H      -1.132091      1.682720      1.309403
H      -2.249851      1.592207     -0.055667
H      -0.691998     -1.394536     -1.726899
H      -2.024064     -0.160586     -1.839799
H      -1.489227     -2.042063      0.576130
H      -2.815839     -0.801671      0.469495
