14
Extracted from Q-Chem output
O       0.481324      1.978379      0.862558
C       1.514805      0.988221      0.875977
C       0.582922      1.132979     -0.245110
C      -0.391204     -0.845438     -1.335809
C      -0.982010     -1.705882     -0.503512
C      -1.137388     -0.597039      0.512060
N      -0.534963      0.300213     -0.512601
H       2.525851      1.377581      0.795727
H       0.947965      1.599511     -1.159623
H       0.030758     -0.863656     -2.332842
H       1.378674      0.190337      1.598544
H      -1.346509     -2.716972     -0.576283
H      -0.542240     -0.689377      1.420153
H      -2.155432     -0.300301      0.767022
