14
Extracted from Q-Chem output
O       0.924014      1.729868      1.446823
C       1.237884      0.727664      0.679618
C       0.363739      0.915467     -0.532323
C      -0.145873     -0.514246     -1.204587
C      -0.365100     -1.355992     -0.132333
C      -1.274416     -0.372863      0.523345
N      -0.999816      0.594100     -0.587024
H       2.300102      0.630734      0.353265
H       0.643335      1.667940     -1.265101
H       0.104216     -0.656726     -2.245041
H       1.003756     -0.337782      1.055955
H      -0.238062     -2.423261     -0.012688
H      -1.061004      0.012482      1.520519
H      -2.317843     -0.684388      0.436542
