13
Extracted from Q-Chem output
C       0.700377      1.252739      0.830871
C       0.053721     -0.935583     -1.558482
C      -0.474417     -1.248896     -0.177306
N      -1.281555     -0.215312      0.414447
C      -0.742952      0.851474      0.824147
O       0.072192      0.149869     -2.064092
H       0.858868      2.018299      0.068137
H       0.959833      1.690751      1.796689
H       1.381870      0.429803      0.620918
H       0.459949     -1.820217     -2.092912
H      -1.067016     -2.165092     -0.261240
H       0.407479     -1.522507      0.422715
H      -1.431241      1.594527      1.233468
