13
Extracted from Q-Chem output
C       0.883180      0.858868      0.214914
C       0.388288     -0.410261     -0.871235
C      -0.613510     -1.293545      0.024724
N      -1.490033     -0.335247      0.602690
C      -1.196308      0.806797      0.702257
O      -0.117796      0.106673     -1.899902
H       0.627557      1.872400     -0.110646
H       1.020991      0.782756      1.300700
H       1.898386      0.743032     -0.188102
H       1.300800     -1.044585     -1.006399
H      -1.155033     -1.977696     -0.626513
H      -0.115182     -1.847012      0.824392
H      -1.496069      1.774889      1.065428
