11
smiles: [N:4](=[C:5]=[O:6])[H:11].[O:1]([C:2](=[C:3]([H:9])[H:10])[H:8])[H:7]
O        0.64467600       1.09596600      -0.63943800
C       -0.46398500       1.14912900       0.14518900
C       -1.61599800       0.61126200      -0.21791800
N        0.52575400      -2.01827300       0.43111000
C        1.64153800      -1.79317200       0.02791200
O        2.74505200      -1.69977400      -0.31665200
H        1.37237900       1.54048200      -0.20526300
H       -0.34680700       1.66361400       1.09551800
H       -2.46994900       0.67922500       0.43964900
H       -1.72385600       0.10088300      -1.16612600
H       -0.25182500      -1.38669600       0.38080900
