15
Extracted from Q-Chem output
C       2.107885     -0.180567      0.172783
C       0.635125     -0.130973     -0.006405
C      -0.270907     -1.076356     -0.554459
C      -1.467855     -0.216740     -0.754911
C      -1.532652     -0.253678      0.721411
C      -0.337805      0.712814      0.740086
C      -0.787758      1.156740     -0.605673
H       2.520534      0.829254      0.192749
H       2.360055     -0.654077      1.128483
H       2.602358     -0.731546     -0.627586
H      -0.082903     -2.053703     -0.979164
H      -2.270738     -0.483223     -1.431959
H      -2.364836     -0.416273      1.403506
H      -0.035816      1.364960      1.552543
H      -1.078774      2.144409     -0.954991
