12
Extracted from Q-Chem output
O       2.276813      1.058977     -0.912820
C       1.221416      0.802888     -0.404118
C       0.618451     -0.579088     -0.345174
C      -0.633191     -0.681047      0.509137
C      -1.882375     -0.251273     -0.080338
O       0.448743      1.743117      0.168915
H       0.381106     -0.849287     -1.376980
H       1.410553     -1.250296     -0.009058
H      -1.014843     -1.740662      0.472528
H      -0.447260     -0.479431      1.570537
H      -2.614627     -0.181964      0.745613
H       0.902678      2.587544      0.052912
