12
Extracted from Q-Chem output
O       2.294381      1.108670     -0.302211
C       1.180509      0.716778     -0.226702
C       0.668821     -0.691493     -0.383798
C      -0.592278     -0.818812      0.460107
C      -1.455542      0.359298      0.112171
O       0.134344      1.604248      0.097706
H       0.426951     -0.817080     -1.444174
H       1.463075     -1.391509     -0.129969
H      -1.159363     -1.709132      0.165864
H      -0.325542     -0.927870      1.518712
H      -1.897264      0.775453      1.029825
H      -0.385045      1.812513     -0.697371
