11
Extracted from Q-Chem output
C      -2.075765      0.068586     -0.419916
N      -0.729523      0.110168     -0.968571
C       0.333366      0.079044     -0.190833
O       2.419135     -0.299496      2.581263
C       1.279841      0.011224      0.560749
C       2.432243     -0.044432      1.400364
H      -2.768835     -0.246985     -1.198760
H      -2.392724      1.039826     -0.030626
H      -2.107123     -0.660476      0.387877
H      -0.613371      0.480669     -1.895751
H       3.381418      0.171448      0.873620
