11
Extracted from Q-Chem output
C      -1.753638      0.106012     -0.040510
N      -0.469874      0.234530     -0.709647
C       0.649279     -0.303399     -0.279906
O       0.841476     -0.127206      1.419237
C       1.934511     -0.608462     -0.509326
C       2.007008     -0.112491      0.812916
H      -2.365056     -0.671034     -0.503818
H      -2.284070      1.056504     -0.080540
H      -1.572491     -0.149837      1.000027
H      -0.447714      0.566744     -1.660523
H       2.837058      0.401492      1.303612
