14
Extracted from Q-Chem output
O       0.841027     -0.927634     -1.512386
C       0.454554      0.251961     -0.835892
C      -1.034497      0.344327     -0.623021
C      -0.818220     -0.254153      1.540851
O       0.446292     -0.658578      1.305720
C       1.135566      0.309351      0.551281
H       0.672654     -1.670286     -0.925548
H       0.822012      1.081219     -1.442544
H      -1.596691     -0.485716     -1.036324
H      -1.481663      1.300451     -0.894694
H      -1.456443     -1.148383      1.579037
H      -1.200595      0.566208      0.713703
H       1.027250      1.299152      1.007705
H       2.183503      0.023025      0.490511
