13
Extracted from Q-Chem output
N      -1.568118      0.924185     -0.189796
C      -1.166296     -0.349613     -0.001188
O      -1.666130     -1.311142     -0.546294
C      -0.037836     -0.525659      1.010408
O       0.881145      0.566710      1.043358
C       1.771497      0.788688      0.067084
N       1.709226     -0.078216     -0.935786
H      -2.281129      1.106332     -0.873039
H      -1.050699      1.689866      0.203884
H       0.456996     -1.479502      0.820507
H      -0.476647     -0.568226      2.007578
H       2.362544      0.061127     -1.684800
H       1.067637     -0.855565     -1.043836
