16
Extracted from Q-Chem output
C      -0.035227     -1.413652     -0.352468
C      -1.081652     -0.697831      0.502383
C      -0.847256      0.792016      0.309892
C      -0.491801      1.368280     -0.944433
C       0.647909      0.887420     -0.318082
C       1.206291     -0.506129     -0.314132
H      -0.385160     -1.495460     -1.381586
H       0.178949     -2.420817      0.008713
H      -0.941377     -0.936706      1.560556
H      -2.100891     -0.982357      0.232051
H       0.803304      1.365397      1.239107
H      -1.108512      1.444660      1.156467
H      -0.706361      2.347724     -1.341406
H       1.298376      1.648010      0.413387
H       1.782660     -0.667282      0.600841
H       1.865706     -0.668383     -1.168313
