18
smiles: [C-:3](=[N+:4]([C:5](=[O:6])[C:7]([H:16])([H:17])[H:18])[H:15])[H:14].[C:1]([C:2]([H:11])([H:12])[H:13])([H:8])([H:9])[H:10]
C       -1.48329300       0.28356000      -1.07868900
C       -2.02833300       1.24739600      -0.03324100
C        0.26360200      -0.06716500       2.54980200
N        0.85404900      -0.65933600       1.53446600
C        1.56220500       0.05637900       0.49691100
O        1.64724300       1.24170500       0.49113700
C        2.15496400      -0.85941500      -0.54044000
H       -2.21577000       0.09616500      -1.86624700
H       -0.58327100       0.67993600      -1.55269000
H       -1.22392700      -0.67960600      -0.63480500
H       -2.28937500       2.21000500      -0.47736400
H       -2.92733000       0.85016600       0.44198800
H       -1.29528700       1.43620400       0.75346800
H       -0.17919200      -0.88428500       3.14841800
H        0.85977700      -1.66806700       1.39924300
H        1.36612700      -1.42912600      -1.03725300
H        2.83998400      -1.57162800      -0.07485700
H        2.69131400      -0.26675400      -1.27555400
