18
Extracted from Q-Chem output
C      -2.210670     -0.302701     -0.592794
C      -1.563364      0.839849      0.177185
C      -0.584292      0.370754      1.249356
N       0.552155     -0.358071      0.720106
C       1.634062      0.277261      0.201984
O       1.731609      1.488660      0.185032
C       2.717851     -0.615798     -0.358561
H      -2.913522      0.070172     -1.339306
H      -1.462795     -0.898947     -1.120827
H      -2.762858     -0.970116      0.075099
H      -1.029571      1.505590     -0.505037
H      -2.334307      1.443009      0.665566
H      -0.196426      1.232251      1.794165
H      -1.090804     -0.279731      1.967324
H       0.511139     -1.358662      0.669560
H       2.778376     -0.452052     -1.434988
H       2.552426     -1.676604     -0.168732
H       3.670993     -0.314864      0.074075
