15
Extracted from Q-Chem output
C       2.067136      0.169633     -0.200822
C       0.590723      0.297716     -0.114556
O      -0.060409      1.298960     -0.871568
C      -1.062433      1.281375      0.055336
C      -1.681834     -1.027262     -0.443124
C      -0.361466     -0.914390      0.020821
C      -0.366943      0.468550      1.001556
H       2.564261      1.073500      0.152250
H       2.402284     -0.670027      0.409320
H       2.362460     -0.017737     -1.235163
H      -1.896229      1.962018      0.014027
H      -2.509537     -0.558339      0.054304
H      -1.939004     -1.852308     -1.104098
H       0.230625     -1.815277      0.216702
H      -0.351674      0.354456      2.070831
