16
Extracted from Q-Chem output
C      -2.600259     -0.009148      0.174276
C      -1.259660     -0.063548     -0.545259
C      -0.118233      0.509343      0.294480
C       1.194639      0.511025     -0.440623
C       2.259257     -0.131569     -0.059184
C       3.320195     -0.774804      0.332024
H      -2.571078     -0.579117      1.106146
H      -3.400416     -0.422208     -0.442240
H      -2.870855      1.019532      0.425361
H      -1.019451     -1.096929     -0.812125
H      -1.323486      0.488376     -1.488749
H      -0.366622      1.538041      0.579746
H      -0.016628     -0.058775      1.222345
H       3.502503     -1.797346      0.021632
H       1.245762      1.081611     -1.365592
H       4.053512     -0.304926      0.977491
