19
Extracted from Q-Chem output
C       2.551896     -0.189455      0.042403
C       1.183387     -0.005015     -0.598558
C       0.176009      0.645877      0.337318
C      -1.160926      0.972952     -0.329802
C      -2.001902     -0.151001     -0.872898
C      -1.940445     -1.439270     -0.569294
O       0.030734     -0.201812      1.470071
H       2.970732      0.769002      0.360517
H       2.484695     -0.830139      0.921823
H       3.254243     -0.644162     -0.658211
H       1.268241      0.624711     -1.489289
H       0.792386     -0.967606     -0.934306
H       0.604302      1.605325      0.667558
H      -1.775446      1.542742      0.380654
H      -0.955661      1.678481     -1.142027
H      -2.761936      0.168833     -1.582721
H      -0.608290      0.187921      2.068966
H      -2.624170     -2.142611     -1.029606
H      -1.223606     -1.829847      0.141515
