19
Extracted from Q-Chem output
C       2.535984     -0.234514      0.213694
C       1.342612      0.187570     -0.631115
C       0.120498      0.535901      0.202223
C      -1.127883      0.999818     -0.671649
C      -2.188078      0.038279     -0.221073
C      -1.660393     -1.267473     -0.241271
O      -0.314539     -0.549441      0.994078
H       2.821789      0.559069      0.908426
H       2.291031     -1.116773      0.805884
H       3.402566     -0.464795     -0.408643
H       1.595944      1.061321     -1.241754
H       1.084712     -0.610339     -1.336122
H       0.382233      1.350716      0.886939
H      -1.391553      2.039936     -0.478954
H      -0.879027      0.908564     -1.733209
H      -3.242520      0.249334     -0.119304
H      -1.561131     -0.142956      0.961660
H      -2.187018     -2.076869      0.254653
H      -0.885520     -1.587309     -0.930902
