14
smiles: [C:1](/[C:2](=[C:5](/[O:6][H:13])[H:14])[H:10])([H:7])([H:8])[H:9].[C:3](=[O:4])([H:11])[H:12]
C       -2.28504600      -0.65074400       0.57001800
C       -1.03208900       0.12273000       0.30012600
C        2.54014800      -0.46141500      -0.26747600
O        2.46385300       0.54944700       0.36674900
C       -0.84057000       0.85619500      -0.78738000
O        0.26459900       1.58380800      -1.09369100
H       -2.76870700      -0.31615700       1.49141000
H       -2.08000600      -1.71843200       0.68316400
H       -3.00266600      -0.53295100      -0.24378200
H       -0.24247400       0.07269600       1.04797300
H        3.34514500      -1.20145500      -0.09523200
H        1.80912000      -0.71136000      -1.06016500
H        0.90931100       1.49534400      -0.38705200
H       -1.58941100       0.94588300      -1.56703800
