14
Extracted from Q-Chem output
C      -1.467252     -0.934271      0.437691
C      -0.472447      0.189823      0.379658
C       1.339421     -0.438802     -0.283821
O       2.107077      0.568600     -0.306352
C      -0.526185      1.138070     -0.620525
O       0.329226      2.094855     -0.721854
H      -2.224200     -0.752359      1.203304
H      -0.986960     -1.885612      0.679210
H      -1.979800     -1.058749     -0.518303
H      -0.019058      0.503422      1.313555
H       1.389855     -1.127309      0.568282
H       1.048517     -0.929974     -1.224909
H       1.287055      1.624603     -0.488780
H      -1.224152      1.015639     -1.455437
