17
Extracted from Q-Chem output
C       1.600767      1.007679      0.584549
C       1.225064     -0.693098     -0.515402
O       0.890215     -0.541196      1.050546
C      -0.506482     -0.786893      0.740130
C      -1.378772      0.434264      0.412833
C      -1.165568      0.176922     -1.102958
C      -0.250157     -1.021425     -0.759766
H       1.344180      1.413185      1.568132
H       2.663580      0.845320      0.481305
H       1.215807      1.622636     -0.217285
H       1.849791     -1.590275     -0.563341
H      -0.900615     -1.515743      1.450664
H      -1.014568      1.381656      0.808891
H      -2.410292      0.306220      0.741567
H      -2.086179     -0.101460     -1.616960
H      -0.678586      0.973615     -1.666449
H      -0.466208     -1.966889     -1.258263
