16
Extracted from Q-Chem output
C      -2.115426      0.071307     -0.437942
C      -0.732148     -0.225360     -0.988458
O      -0.002524      0.939564     -1.258726
C       0.192496     -0.909482      0.034104
C       1.377540      0.016836     -0.109126
O       2.111417      0.009253     -1.202762
N       1.929534      0.565192      0.960428
H      -2.036983      0.694686      0.456792
H      -2.655938     -0.845261     -0.183065
H      -2.695228      0.622216     -1.179544
H      -0.846743     -0.853073     -1.887443
H       1.321303      0.405674     -1.768958
H      -0.210921     -0.873870      1.049031
H       0.495227     -1.936704     -0.183400
H       2.717780      1.176542      0.830436
H       1.440946      0.580400      1.836173
