11
Extracted from Q-Chem output
O       1.683774      0.115039      0.471011
C       0.607575     -0.535100     -0.173940
C      -0.638194      0.238059      0.241559
O      -0.542351      1.584000     -0.111872
C      -2.686373     -0.807085     -0.933315
N      -1.771089     -0.315902     -0.408376
H       2.512760     -0.188576      0.100414
H       0.697376     -0.487989     -1.264222
H       0.513266     -1.579993      0.138707
H      -0.791072      0.126579      1.322319
H       0.347866      1.862507      0.130252
