11
Extracted from Q-Chem output
O       1.880799     -0.033633      0.343231
C       0.701055     -0.439059     -0.308099
C      -0.482199      0.284860      0.313170
O      -0.591229      1.599099      0.116611
C      -2.165991     -0.555060      0.012581
N      -1.734458     -0.525105     -1.081269
H       1.983746     -0.525632      1.159725
H       0.798860     -0.165694     -1.358930
H       0.536369     -1.516874     -0.253952
H      -0.593509      0.071650      1.371430
H      -0.399907      1.816988     -0.801961
