15
Extracted from Q-Chem output
C      -1.000784     -0.024276      0.525900
C      -1.416319      0.667954     -0.711486
O      -0.609051      1.443371     -1.358352
C       0.644180      1.706624     -1.139799
C       1.315062     -1.226559      0.771561
O       0.312656     -1.878191      1.529915
C      -0.079091     -1.216921      0.338768
H      -0.511106      0.690833      1.208812
H      -1.901460     -0.385206      1.027343
H      -2.421279      0.682512     -1.101293
H       1.184018      1.184558     -0.367110
H       1.078522      2.418442     -1.819368
H       2.031344     -1.878845      0.280320
H       1.734282     -0.336411      1.235576
H      -0.362664     -1.891355     -0.466931
