12
Extracted from Q-Chem output
C      -1.776302     -0.277567     -0.468474
C      -0.497282     -0.100982     -0.150757
C       0.092498      1.091391      0.572484
O       1.502180      0.829269      0.685645
C       1.726802     -0.367861      0.103998
C       0.647800     -0.969631     -0.398226
H      -2.106709     -1.168762     -0.986336
H      -0.312181      1.213096      1.579028
H      -2.529727      0.460238     -0.221225
H      -0.035017      2.024605      0.020952
H       2.757725     -0.692601      0.117143
H       0.626149     -1.924358     -0.897998
