12
Extracted from Q-Chem output
C      -1.736442     -0.041969     -0.227104
C      -0.322616     -0.100984     -0.306401
C       0.152787      1.035753      0.373646
O       1.479715      0.757174      0.787017
C       1.784419     -0.412445      0.203492
C       0.791742     -0.954588     -0.551133
H      -2.387430     -0.377249     -1.032015
H      -1.217232      1.167615      0.658259
H      -2.149616     -0.220104      0.758317
H       0.122843      1.998157     -0.129560
H       2.753235     -0.818145      0.458274
H       0.824533     -1.916379     -1.036556
