12
Extracted from Q-Chem output
N       2.137332      0.119725     -0.005977
C       0.778841     -0.058547     -0.006532
C      -0.171511      1.062150      0.108196
C      -1.384589      0.512253      0.131437
C      -1.211498     -0.971854      0.036780
N       0.213405     -1.209611     -0.053632
H       2.671081     -0.689130     -0.275975
H       2.486492      0.995553     -0.350524
H       0.086267      2.110668      0.169952
H      -2.334175      1.023731      0.210707
H      -1.724024     -1.387682     -0.838084
H      -1.632666     -1.480266      0.911911
