12
Extracted from Q-Chem output
N       2.087249      0.032604      0.159666
C       0.710785      0.003027     -0.022810
C      -0.187095      1.070599      0.060079
C      -1.466502      0.536836     -0.008420
C      -1.333951     -0.842497     -0.147517
N       0.085827     -1.171661     -0.206886
H       2.556570     -0.750744     -0.265671
H       2.518258      0.908812     -0.082642
H       0.071457      2.109225      0.208136
H      -2.398864      1.079877      0.032867
H      -2.043259     -1.573844     -0.502915
H      -0.649173     -1.402009      0.783734
