8
Extracted from Q-Chem output
O       1.428451      1.258660     -0.521092
C      -1.126029      0.421591      0.130363
C      -0.965466     -0.806463     -0.146438
N       0.115425     -0.208294      0.682114
C       1.292568      0.202621      0.030724
H      -1.632485      1.364301      0.189862
H      -1.217866     -1.778403     -0.526039
H       2.116974     -0.518999      0.158828
