8
Extracted from Q-Chem output
O       1.050923      1.305198     -0.336871
C      -1.182567      0.458807      0.064497
C      -0.971627     -0.776902     -0.082931
N       0.377155     -0.775047      0.376782
C       1.267946      0.149597      0.004043
H      -1.333806      1.493604      0.275471
H      -1.490685     -1.678326     -0.369800
H       2.294230     -0.241919      0.067132
