11
Extracted from Q-Chem output
O      -0.650566      1.715592     -1.485668
C      -0.722286      0.696832     -0.876273
C      -1.513355     -0.196568     -0.036686
C      -0.009718     -0.493634     -0.385274
C       1.035481     -0.362259      0.661927
C       1.881618      0.642850      0.690962
O       2.630397      1.519573      0.732622
H      -1.731934      0.124819      0.975397
H      -2.259810     -0.834327     -0.495659
H       0.121462     -1.299072     -1.103323
H       1.155893     -1.109551      1.436344
