11
Extracted from Q-Chem output
N       1.558322      0.852011      1.016760
C       1.047843      0.810268     -0.113724
O       0.129615     -1.207933     -0.885731
C      -0.872673     -1.106955     -0.004019
C      -1.219197      0.336198     -0.092704
O      -0.331066      1.232064     -0.193959
H       2.551089      0.646810      0.973796
H       1.444683      0.688520     -1.111697
H      -0.659049     -1.362645      1.060743
H      -1.800693     -1.656645     -0.263359
H      -2.223964      0.736004     -0.249082
