12
Extracted from Q-Chem output
O      -2.580792      0.398748      0.107255
C      -1.586118     -0.430605      0.112256
C      -0.329595      0.058450     -0.531196
C       0.549637      0.814626      0.508393
N       1.795708      0.055893      0.542954
C       1.656424     -0.898180     -0.263924
O       0.500254     -1.024947     -0.953237
H      -2.684003     -0.625030      0.672114
H      -0.591665      0.672677     -1.398794
H       0.734616      1.845956      0.209579
H       0.094161      0.829923      1.500970
H       2.396330     -1.659155     -0.478119
