14
Extracted from Q-Chem output
N       0.999114     -2.225534     -0.164271
C       1.707141     -1.069594     -0.090344
O       2.780050     -0.592797     -0.286212
C      -0.676715      2.213512     -1.090035
C      -1.000348      1.108451     -0.439552
C      -0.607366     -0.276092     -0.863302
C       0.271365     -0.946712      0.170156
H       0.859717     -2.721008     -1.035273
H      -0.087654      2.185067     -2.000537
H      -0.987276      3.188339     -0.735215
H      -1.585599      1.179219      0.474400
H      -0.089084     -0.239043     -1.825240
H      -1.507776     -0.886786     -0.998537
H      -0.118525     -0.952018      1.183963
