13
Extracted from Q-Chem output
C      -1.583589     -0.363039      0.297732
C      -0.215030     -0.517540     -0.334670
C       0.095234      0.536766     -1.380301
N       0.660391      0.608461     -0.055356
C       1.754055      0.479003      0.604115
O       1.865918     -0.578329      1.347599
H      -1.575382     -0.699763      1.336879
H      -2.291368     -0.999940     -0.235594
H      -1.975773      0.665614      0.279551
H       1.142155     -1.171738      0.936056
H       0.794706      0.331072     -2.185672
H      -0.619761      1.331228     -1.587502
H       2.578366      1.182470      0.569716
