14
Extracted from Q-Chem output
O      -0.233778     -1.958809      0.376047
C      -0.267503     -0.852051     -0.503000
C      -1.052854      0.335858      0.074643
C       0.043050      1.222795      0.699929
C       1.113288     -0.236552     -0.673042
O       1.274746      0.537542      0.501189
H       0.270941     -1.700321      1.152495
H      -0.688936     -1.222590     -1.437146
H      -1.586201      0.867698     -0.714122
H      -1.786221     -0.015669      0.799016
H       1.154035      0.396713     -1.571352
H       0.084098      2.203517      0.211759
H       1.911292     -0.976947     -0.716349
H      -0.079202      1.378700      1.771894
