14
Extracted from Q-Chem output
O       1.367376     -0.881151      0.957574
C       0.853187     -0.821713     -0.341061
C      -0.670787     -0.953384     -0.433309
C      -1.220770      0.383210      0.116717
C       0.041683      1.200965      0.394621
C       1.127914      0.632430     -0.281740
H       0.624406      0.363597      1.212901
H       1.411704     -1.431006     -1.054533
H      -0.971076     -1.105989     -1.472621
H      -1.003123     -1.815972      0.144497
H      -1.861087      0.884889     -0.611867
H      -1.811083      0.248900      1.022843
H       0.027677      2.226727      0.736316
H       2.111096      1.055776     -0.433654
