11
Extracted from Q-Chem output
C       2.261204      0.735483      0.277982
C       1.289377      0.120940     -0.051623
C       0.156055     -0.677085     -0.436018
N      -0.767398     -1.190773      0.566096
C      -1.259165     -0.185428     -0.319221
C      -1.887369      1.160630      0.479811
N      -1.076881      1.635542     -0.244380
H       3.116870      1.298190      0.568780
H       0.349390     -1.374472     -1.244239
H      -0.570521     -0.828118      1.491422
H      -1.994284     -0.473259     -1.054840
