14
Extracted from Q-Chem output
O       2.515303     -0.436360     -0.244733
C       1.701370      0.262899      0.284599
C       0.227829     -0.076014      0.402398
C      -0.116827     -1.391384     -0.278294
C      -1.907225      0.839904      0.266696
C      -0.543344      1.177233     -0.148799
H       1.990467      1.234238      0.737523
H       0.020760     -0.136200      1.478472
H      -0.065396     -1.291934     -1.364126
H       0.597176     -2.160960      0.012719
H      -2.371156      0.270620     -0.561577
H      -1.116945     -1.730247     -0.007097
H      -0.339799      1.259563     -1.223743
H      -0.151320      2.049767      0.381394
