12
smiles: [C:5]=[N:6][H:8].[N:1](=[C:2]1[C:3]([H:9])([H:10])[C:4]1([H:11])[H:12])[H:7]
N        0.86235300       0.30052600       0.92974700
C       -0.24205400      -0.15634100       0.55533800
C       -1.08792700      -0.42985900      -0.59642400
C       -1.54625500      -0.75849500       0.84496900
C        2.99089000       1.50494300      -2.17492900
N        2.43203400       1.17339900      -1.21101900
H        0.94207000       0.24805700       1.94529900
H        1.95262000       0.88914400      -0.38538600
H       -0.83155500      -1.26061200      -1.24315600
H       -1.56655200       0.40447100      -1.09539200
H       -2.32142100      -0.13800700       1.27933400
H       -1.58461400      -1.80240500       1.13395700
