12
Extracted from Q-Chem output
N       0.691239      0.986666      1.006787
C      -0.166828      0.260576      0.417005
C      -1.090217      0.117384     -0.676195
C      -0.960489     -0.940878      0.434076
C       1.901117     -0.852999     -1.195244
N       2.038433      0.301331     -1.307030
H       1.190031      0.625164      1.807311
H       1.163749      1.691354      0.446603
H      -0.646674     -0.093088     -1.641534
H      -1.966522      0.756067     -0.660068
H      -1.754132     -1.039285      1.164813
H      -0.400119     -1.837471      0.185821
