16
smiles: [C:1]([C@@:2]1([H:11])[N:3]([H:12])[C@:4]1([C@@:5]1([H:14])[C-:6]=[O+:7]1)[H:13])([H:8])([H:9])[H:10].[H:15][H:16]
C       -2.11004700      -0.33093900      -0.13472200
C       -1.35327700       0.78725000       0.52813000
N       -0.60413800       0.56426000       1.76223500
C        0.12753700       0.83715600       0.53274900
C        0.94904500      -0.22232300      -0.12457200
C        2.09272900      -0.87324400       0.57865800
O        0.99053600      -1.53253900       0.51758100
H       -2.32983200      -0.08295900      -1.17546400
H       -3.06127100      -0.50009100       0.37371000
H       -1.55075300      -1.26770100      -0.12158400
H       -1.87029300       1.74238100       0.52268500
H       -0.56805700      -0.42712700       1.97959100
H        0.61501400       1.80834100       0.51550300
H        0.92230200      -0.28972500      -1.20743200
H        4.17526000      -0.15252700      -2.06863700
H        4.06236100      -0.29202300      -1.34594300
