16
Extracted from Q-Chem output
C      -1.984023     -0.416751     -0.042831
C      -1.247992      0.682960      0.674697
N      -0.271511      0.388759      1.724246
C       0.192171      0.952400      0.466850
C       1.025462      0.146690     -0.475979
C       2.217219     -0.562364      0.025401
O       1.096990     -1.272775     -0.288269
H      -2.405071     -0.045819     -0.979990
H      -2.811572     -0.778685      0.570831
H      -1.336752     -1.263073     -0.272011
H      -1.866593      1.542687      0.917357
H      -0.070031     -0.606984      1.740661
H       0.543423      1.978821      0.537621
H       0.946905      0.424104     -1.524112
H       2.933442     -0.487988     -1.360237
H       3.269768     -0.773625     -0.537236
