16
Extracted from Q-Chem output
C       2.111840      0.419127      0.332731
C       1.069266      0.239002     -0.775560
C      -0.296286     -0.071037     -0.265993
C      -0.690396     -1.310176      0.422161
C      -2.431953      0.848232      0.025977
O      -1.181074      0.855449     -0.388265
H       2.188934     -0.477676      0.951364
H       1.845129      1.252502      0.984950
H       3.099134      0.617230     -0.089099
H       1.398091     -0.562246     -1.447744
H       1.006909      1.147472     -1.377936
H      -1.538930     -1.790638     -0.089304
H       0.135365     -2.016984      0.476480
H      -1.043855     -1.092224      1.443101
H      -2.852647     -0.037679      0.471076
H      -2.991420      1.722667     -0.253161
