19
Extracted from Q-Chem output
C       2.793110     -0.388957      0.068064
C       1.360272      0.025636      0.389886
O       1.077172     -0.396098      1.718137
C       0.984292      1.346876     -0.072823
C      -1.679365      1.161999     -1.126589
C      -2.054375      0.338795     -0.154833
C      -1.967766     -1.152351     -0.218881
H       3.011892     -0.200651     -0.980893
H       2.928640     -1.446892      0.290142
H       3.487675      0.182534      0.683823
H       0.701217     -0.518546     -0.332842
H       0.300978      0.077516      2.024319
H       0.366073      1.847292      0.696228
H      -1.284671      0.789626     -2.065624
H      -1.765551      2.236740     -1.028243
H      -2.458490      0.760397      0.763468
H      -1.603960     -1.487882     -1.191359
H      -2.945289     -1.608717     -0.045582
H      -1.295856     -1.541391      0.553012
