11
Extracted from Q-Chem output
C      -1.488352      0.225344     -0.098086
C      -0.058349     -0.131598     -0.472357
C       0.893968      0.065604      0.656015
O       0.756260      0.381713      1.764355
C       2.626233      0.180599     -0.028129
N       2.450670     -0.942146      0.285276
H      -1.840866     -0.378814      0.737604
H      -2.144676      0.046772     -0.949731
H      -1.573543      1.274592      0.184329
H       0.316186      0.456196     -1.312738
H       0.048947     -1.177826     -0.771582
