11
Extracted from Q-Chem output
C      -0.868869     -0.856257     -0.153018
C      -0.039043      0.057502      0.732601
C       1.247330     -0.066984     -0.098863
O       0.943127      1.156197     -0.751562
C      -0.239790      1.182832     -0.192087
H      -1.935201     -0.644343     -0.224308
H      -0.688699     -1.916549      0.019306
H      -0.069817      0.120156      1.817131
H       0.312886     -0.815211     -0.891935
H       2.279369     -0.168911      0.225337
H      -1.050854      1.790492     -0.566311
