11
smiles: [C-:4]#[O+:5].[C:2](=[C:3]([H:9])[H:10])([H:7])[H:8].[O:1]([H:6])[H:11]
O       -1.24650500       1.05215400      -1.44876700
C       -0.48827700      -0.80014500       1.25135200
C       -0.01797300      -1.55937100       0.27679900
C        1.74845100       1.52066800      -0.21977900
O        2.69559100       1.46727800       0.38201500
H       -1.42759000       1.72599800      -2.10520000
H       -1.25319800      -0.05324500       1.07174000
H       -0.12726300      -0.89296900       2.26937600
H       -0.37885400      -1.46651100      -0.74125600
H        0.74706200      -2.30614900       0.45647400
H       -0.34954000       1.21706700      -1.15521100
