11
Extracted from Q-Chem output
O      -1.054289      1.123402     -0.627674
C      -0.897541     -0.557199      0.186303
C       0.469860     -0.875189      0.319495
C       1.384924      0.631021     -0.382111
O       2.543591      0.564542     -0.343726
H      -1.375966      1.734759      0.037762
H      -1.480110     -1.024348     -0.595825
H      -1.473163     -0.298391      1.067109
H       0.860949     -1.644741     -0.336607
H       0.881265     -0.889224      1.322827
H       0.110668      1.187283     -0.633407
