13
Extracted from Q-Chem output
N      -0.727045      1.076676     -0.390273
C      -1.556933      0.041760     -0.290167
O      -1.293116     -1.140016      0.016218
C       0.087275     -1.669176      0.234994
C       1.572797      0.259500      0.510793
C       0.654639      1.138229     -0.084347
N       1.479136      2.054969     -0.043248
H      -1.132966      1.956948     -0.675444
H      -2.604285      0.250530     -0.491596
H       0.486029     -1.741956     -0.783471
H      -0.128639     -2.679037      0.587438
H       1.640988      0.197411      1.585515
H       2.313412     -0.236758     -0.094458
