13
smiles: [C:1](/[C:2](=[C:3](\[O:4][H:13])[H:12])[H:10])([H:7])([H:8])[H:9].[C:5]=[N:6][H:11]
C       -0.56927400       1.55188700       0.05120700
C        0.27566400       0.61128600      -0.74806900
C        1.16470900      -0.23086900      -0.24319500
O        1.40714400      -0.32708300       1.09727500
C       -2.47795100      -2.63560100       0.51019000
N       -1.66070300      -1.87554200       0.18504600
H       -1.63228500       1.37474900      -0.13102700
H       -0.38363000       1.43882500       1.11851000
H       -0.36534200       2.59080800      -0.22117300
H        0.16391300       0.60619900      -1.82605500
H       -0.95988000      -1.22636700      -0.09713400
H        1.74978500      -0.88900900      -0.87834600
H        2.07519100      -0.99293700       1.25554200
