13
Extracted from Q-Chem output
C      -0.530735      1.561528      0.115359
C      -0.490579      0.106186     -0.331955
C       0.739848     -0.622518      0.067311
O       1.872257      0.093476      0.108541
C      -1.601220     -0.911987      0.063288
N      -1.331715     -2.075950     -0.185482
H      -1.497432      1.988622     -0.146322
H      -0.398215      1.647391      1.194192
H       0.249986      2.138817     -0.377317
H      -0.671864      0.056902     -1.405309
H      -0.302169     -2.173091     -0.564642
H       0.675350     -1.408228      0.806784
H       2.468554     -0.237270      0.785665
