15
Extracted from Q-Chem output
C       2.280106      0.146759      0.432597
N       0.750105     -0.423056     -1.404719
C       1.022106      0.540991     -0.332143
C      -0.246952      0.562810      0.438666
C      -1.076025     -0.281727     -0.171144
C      -2.475595     -0.692435      0.108127
N      -0.407707     -0.861653     -1.304741
H       3.128403      0.083023     -0.248128
H       2.144833     -0.824444      0.910415
H       2.503119      0.885228      1.202953
H       1.190654      1.499926     -0.839625
H      -0.440468      1.158353      1.317985
H      -3.123435     -0.434013     -0.731835
H      -2.857310     -0.208848      1.006167
H      -2.534747     -1.774703      0.239030
