17
Extracted from Q-Chem output
O       2.283375     -0.676920     -0.317869
C       1.047826     -0.189533     -0.014513
C       0.011109     -1.224851      0.391949
C      -1.345568     -0.555261      0.175331
C      -1.120992      0.394332     -0.989423
C       0.131620      2.041562      0.308508
C       1.033773      1.126231      0.626713
H       2.255544     -1.634959     -0.373044
H       0.189906      0.366375     -0.972906
H       0.170189     -1.596568      1.407889
H       0.109027     -2.078477     -0.291064
H      -1.638410      0.006569      1.061876
H      -2.125630     -1.292548     -0.028194
H      -1.137412     -0.117867     -1.959954
H      -1.777657      1.248997     -1.040569
H      -0.097295      2.874776      0.977002
H       1.835683      1.301868      1.341136
