15
Extracted from Q-Chem output
C       1.613282     -0.903253     -0.561657
O       0.224075     -1.207812     -0.655972
C      -0.630848     -0.537689      0.105048
N      -0.445494      0.654508      0.643698
C       0.261090      1.759775      0.017836
C      -1.897666     -1.021739      0.549267
H       1.883358     -0.080052     -1.223796
H       2.141459     -1.802344     -0.871292
H       1.876201     -0.652721      0.467373
H       0.282717      1.684718     -1.073717
H      -0.258815      2.680644      0.279676
H       1.285961      1.844255      0.388433
H      -2.728934     -0.545691      0.033073
H      -2.038696     -2.087850      0.703587
H      -1.531639      0.264117      1.222855
