13
Extracted from Q-Chem output
C       1.297206     -0.685912     -0.172991
C       0.168317      0.293337      0.028467
C       0.404018      1.720055      0.108498
N       0.002228      1.392756     -1.024774
C      -1.127722     -0.292593      0.537385
O      -1.683745     -1.217439     -0.375976
H       0.959893     -1.536832     -0.767003
H       2.136986     -0.214674     -0.683222
H       1.651262     -1.069043      0.787601
H      -1.836850      0.514344      0.758424
H       0.723202      2.613474      0.629515
H      -1.811966     -0.760917     -1.211404
H      -0.954888     -0.850278      1.461159
