14
smiles: [C:1]([C:2]([O:3][H:14])([H:10])[H:11])([H:7])([H:8])[H:9].[C:4](=[O:5])=[C:6]([H:12])[H:13]
C       -2.34576900      -0.29336500       0.49037700
C       -0.98794400       0.18560700       0.01231900
O        0.07548600      -0.29162800       0.81558500
C        2.30023600       0.10353800      -1.09484300
O        1.91327500      -0.73055800      -1.79425200
C        2.73717000       1.04769300      -0.30266100
H       -2.42637700      -1.38178700       0.41975300
H       -2.50841700      -0.00652200       1.53050300
H       -3.14442800       0.13743700      -0.11747200
H       -0.83405400      -0.09289900      -1.03849400
H       -0.92900400       1.27403600       0.06857600
H        2.24723700       1.20949500       0.64462500
H        3.58262300       1.64459000      -0.60665500
H        0.07031700      -1.25009400       0.79015900
