15
Extracted from Q-Chem output
C       1.754550      0.893172     -0.009262
C       0.477436      0.152618      0.202275
O       0.430493     -0.648089      1.429877
C      -0.926516      0.719187      0.089241
C      -1.383921     -0.715846     -0.229771
O      -1.904657     -0.800538     -1.534992
C       0.084743     -1.222683     -0.268714
H       1.732557      1.376589     -0.986671
H       1.900012      1.662046      0.752936
H       2.605016      0.207148      0.002673
H       1.250464     -1.155651      1.483547
H      -1.325539      1.222107      0.970488
H      -1.038333      1.353611     -0.789079
H      -2.031255     -1.198158      0.507760
H      -1.761418     -1.700602     -1.842972
