16
Extracted from Q-Chem output
C       1.746724     -0.559414     -1.358329
N       0.593333      0.309097     -1.210767
C       0.368859      0.720541     -0.006646
O      -0.506618      1.897603      0.076327
C      -1.641326      1.341415      0.289596
C      -0.609812     -0.613640      0.958760
O      -1.140363     -1.423203     -0.031057
H       2.667816     -0.089796     -0.990738
H       1.637639     -1.517230     -0.826993
H       1.891146     -0.787595     -2.414136
H       1.120745      0.935103      0.755249
H      -2.374874      1.941706      0.830072
H      -1.975676      0.495570     -0.305840
H       0.276850     -1.048251      1.432155
H      -1.354128     -0.480809      1.750984
H      -0.688329     -1.145770     -0.856485
