14
smiles: [C@@:1]12([H:8])[C@@:2]([H:9])([C:3]([H:10])([H:11])[C:4]([H:12])=[C:5]1[H:14])[O:6]2.[H:7][H:13]
C        1.29442300       0.15105700       0.33727800
C        0.19126300       1.09400500       0.53561500
C       -1.10641200       0.31104100       0.51798300
C       -0.63918200      -1.11578000       0.35515900
C        0.67984000      -1.20154700       0.21952400
O        1.05553300       0.76409300       1.60957900
H       -0.16558400      -0.04608700      -2.43393800
H        2.23741300       0.40893600      -0.13029200
H        0.22541600       2.12801400       0.20991900
H       -1.67511400       0.45533200       1.44052200
H       -1.74634500       0.62348400      -0.31234700
H       -1.31802900      -1.95907100       0.38303800
H       -0.30576400       0.45242600      -2.96891300
H        1.24682500      -2.11354900       0.09148200
