6
Extracted from Q-Chem output
C      -0.970160     -0.356070     -1.474529
C       0.254152     -0.256173     -1.041907
C       0.791330      0.128969      0.542057
N       1.802041      0.262829      1.110505
C      -1.151627     -0.031454     -0.152051
N      -0.742194      0.239348      0.961653
