8
Extracted from Q-Chem output
N      -1.468131      0.660378     -0.282260
C      -0.573633     -0.201136     -0.055942
O      -0.876287     -1.501211      0.066805
C       0.837999      0.060260      0.098816
C       1.997451      0.327397      0.220422
H      -1.078076      1.593046     -0.347310
H      -1.832614     -1.569313     -0.049877
H       3.031307      0.558204      0.331184
