14
Extracted from Q-Chem output
C      -1.360917     -1.234567      0.032115
C      -0.106036     -0.479379      0.297375
C       0.341265      0.879779     -0.258188
N      -0.405238      1.989960     -0.514396
C       1.636199      0.514442     -0.297003
C       1.295659     -0.845318      0.279947
O       0.592891     -0.660449      1.534724
H      -2.211099     -0.775080      0.542793
H      -1.576374     -1.252292     -1.037552
H      -1.265305     -2.258691      0.392059
H       0.075956      2.869207     -0.591231
H      -1.305044      2.043823     -0.071229
H       2.567251      1.047162     -0.418271
H       1.733672     -1.817857      0.103117
