14
Extracted from Q-Chem output
C       2.385707     -0.355087     -0.119883
C       1.005459      0.167623      0.113832
C      -0.042697     -0.093461     -0.653475
C      -2.247384     -0.078062      0.686347
O      -1.616218      1.187259      0.772381
C      -1.407852      0.428016     -0.403228
H       2.430557     -0.987159     -1.008001
H       2.730548     -0.941147      0.735973
H       3.096553      0.465246     -0.248172
H       0.857013      0.811767      0.976715
H       0.063623     -0.719264     -1.536668
H      -1.839744     -0.842583      1.341747
H      -3.329995     -0.052415      0.596551
H      -1.921276      0.823060     -1.278716
