12
Extracted from Q-Chem output
C       1.192492     -0.677270      0.416269
C       0.034994      0.173683     -0.019515
C      -1.354189     -0.168514      0.434742
C       0.258349      1.316464     -0.743174
N       0.433748      2.218596     -1.529581
H       1.018532     -1.731015      0.179991
H       2.124344     -0.370130     -0.058214
H       1.335787     -0.608548      1.500622
H       0.137433      0.739712     -1.753716
H      -1.599064     -1.209297      0.203967
H      -1.447810     -0.047174      1.519934
H      -2.103906      0.469561     -0.032840
