14
Extracted from Q-Chem output
C      -1.490746      0.433858      0.055509
C      -0.297540      0.459912     -0.834587
C       1.024816      0.742648     -0.155823
C       1.128720     -0.399102      0.844175
C       0.081919     -1.329926      0.828746
C      -0.806346     -0.868360     -0.272473
H      -1.394238      0.813831      1.067432
H      -2.461069      0.598865     -0.393244
H      -0.429578      0.709582     -1.878708
H       1.043584      1.703175      0.366940
H       1.866335      0.742439     -0.852358
H       1.895703     -0.411039      1.615667
H       1.299312     -1.568175      0.376034
H      -1.352910     -1.580663     -0.875274
