15
Extracted from Q-Chem output
C      -1.111378      1.362797      0.016657
C      -0.134409      0.263592      0.360947
C      -0.760372     -1.108707      0.446213
N       1.102040      0.332262     -0.535825
C       1.100965      0.645275      1.076494
C       1.636235     -0.785801     -1.072249
N       2.104792     -1.735306     -1.518406
H      -1.818803      1.460377      0.841868
H      -1.677445      1.145109     -0.892414
H      -0.595899      2.318794     -0.077999
H      -1.377158     -1.340060     -0.425223
H      -0.013118     -1.891466      0.573090
H      -1.404580     -1.121403      1.327053
H       1.223126      1.166964     -1.090942
H       1.556241     -0.270765      1.477732
