15
Extracted from Q-Chem output
C      -0.835083      1.398296      0.116039
C      -0.108946      0.060837      0.109933
C      -1.045579     -1.106942      0.376973
N       0.647773     -0.155845     -1.145857
C       1.190205      0.125789      0.890941
C       1.972430     -0.247298     -0.679293
N       3.077576     -0.645879     -0.751889
H      -1.333031      1.557155      1.073413
H      -1.599792      1.413778     -0.666343
H      -0.134261      2.218303     -0.043425
H      -1.884374     -1.115914     -0.322171
H      -0.512489     -2.053964      0.285956
H      -1.448644     -1.033573      1.389683
H       0.568543      0.608865     -1.809219
H       1.327648     -0.727920      1.574750
