19
smiles: [C:1]([C@@:2]1([H:11])[C:3]([H:12])([H:13])[O:5][C@:6]1([C:7]([H:17])([H:18])[H:19])[H:16])([H:8])([H:9])[H:10].[C:4]([H:14])[H:15]
C       -0.67415700      -1.94303000      -0.44958000
C       -0.73565300      -0.46251800      -0.76960500
C       -1.40914300       0.41058700       0.29772700
C       -0.12661700       2.26569800       1.35232200
O       -0.15519400       0.98631500       0.68679100
C        0.51045300       0.39294200      -0.44417800
C        1.82008500      -0.25612700      -0.07803900
H       -1.66031300      -2.39784400      -0.56665400
H        0.01484900      -2.47125300      -1.11230100
H       -0.35299600      -2.11706300       0.57951300
H       -1.11376200      -0.31099800      -1.78141800
H       -1.88713000      -0.12098400       1.12604900
H       -2.09943600       1.16714900      -0.09001700
H        0.83089200       2.23787900       1.91284600
H        0.14427700       2.86805300       0.46036500
H        0.68223300       1.15712700      -1.21315900
H        1.68745500      -1.01511700       0.69323300
H        2.27427300      -0.72052200      -0.95646800
H        2.51116700       0.49838200       0.30168400
