11
smiles: [C:1]([C:5](=[O:6])[H:11])([H:7])([H:8])[H:9].[C:2](=[N:3][H:10])=[O:4]
C       -0.60468100      -1.48838000       0.67707900
C        0.62869000       3.11385400      -0.10356900
N        0.31893200       1.97753800       0.16319300
O        0.87735700       4.23846700      -0.23986400
C        0.04947800      -1.50410600      -0.67130000
O        0.50658100      -0.53908100      -1.21852900
H       -1.61729300      -1.89202100       0.59714300
H       -0.63210200      -0.47862700       1.08198100
H       -0.05267100      -2.14768300       1.35231200
H        0.45493600       1.18118700      -0.43133900
H        0.09588300      -2.49855400      -1.16423700
