11
Extracted from Q-Chem output
C      -1.026874     -0.617167      0.438915
C       0.172227      0.274471      0.298150
C       1.265035     -0.265236     -0.616279
O       1.241955     -1.380755     -1.044856
C      -0.393184      1.940892      0.116187
N      -0.110915      1.662291     -0.996940
H      -1.746700     -0.197516      1.138595
H      -1.507047     -0.766973     -0.526793
H      -0.691824     -1.590642      0.801461
H       0.656985      0.515255      1.246404
H       2.103947      0.425648     -0.807324
