14
Extracted from Q-Chem output
C       1.491261      0.005226     -0.435054
C       0.605092      0.167889      0.753384
C      -0.752045      0.807736      0.523907
C      -1.405469     -0.148284     -0.470436
O      -0.731325     -1.403730     -0.305723
C       0.425966     -1.295905      0.404244
H       1.132277      0.348951     -1.397091
H       2.561430      0.068430     -0.275670
H       1.093915      0.401478      1.691729
H      -0.693414      1.825925      0.137989
H      -1.304154      0.830091      1.464590
H      -1.277672      0.180934     -1.505785
H      -2.468692     -0.310061     -0.293558
H       1.427912     -1.366747     -0.377834
