16
Extracted from Q-Chem output
C      -2.615074      0.028977     -0.267041
C      -1.239784     -0.606776     -0.123724
C      -0.102872      0.295151      0.045415
C       1.181658     -0.277780     -0.349640
C       2.387808      0.400353      0.303618
O       2.254364      1.794863      0.267849
H      -2.712882      0.505507     -1.243653
H      -2.761476      0.795884      0.493659
H      -3.408227     -0.715059     -0.175392
H      -1.158607     -1.084017      0.877395
H      -1.081023     -1.429121     -0.839115
H       2.482740      0.034118      1.335688
H       1.251229     -1.376388     -0.355703
H       1.154142      0.036053     -1.414518
H       3.308225      0.137313     -0.222091
H       1.315863      1.967860      0.435252
