12
smiles: [C-:5]#[O+:6].[O:1]([C:2]([C:3]([O:4][H:12])([H:10])[H:11])([H:8])[H:9])[H:7]
O       -1.13478300       0.29917400       1.86153500
C       -1.17133900      -0.26970200       0.57479100
C        0.08471900      -1.06596300       0.28523300
O        1.24199900      -0.25268300       0.41319000
C        1.44625900       1.63489700      -2.24044800
O        1.58530600       2.28346600      -3.14718800
H       -0.25192600       0.66215100       1.98100700
H       -1.30009800       0.50843600      -0.19406500
H       -2.04723900      -0.92116500       0.53080900
H        0.02757700      -1.52787900      -0.70747200
H        0.19812900      -1.85882500       1.02648300
H        1.28513400       0.34263500      -0.33781300
