12
Extracted from Q-Chem output
O      -1.182215      0.683775      1.714771
C      -1.220772     -0.157801      0.586367
C       0.158193     -0.689846      0.246798
O       1.030300      0.396226      0.018135
C       1.563316      0.638211     -1.735360
O       0.809816      0.610454     -2.588432
H      -0.453480      1.295570      1.573142
H      -1.625136      0.372407     -0.287140
H      -1.895112     -0.984292      0.822146
H       0.085666     -1.340573     -0.639076
H       0.542688     -1.288110      1.079733
H       2.172708      0.406111     -0.770645
