12
smiles: [C:4]1([H:8])([H:10])[C:5]([H:11])([H:12])[O:6]1.[O:1]=[C:2]=[C:3]([H:7])[H:9]
O        2.48154000       1.97157100       0.77801700
C        2.22856900       1.07901000       0.08953300
C        1.94188500       0.06836000      -0.68903200
C       -1.42961700      -1.07916100       0.19355100
C       -1.57244400       0.35495700       0.41660200
O       -1.30943000      -0.15934900      -0.87550500
H        2.68861500      -0.68894400      -0.86897500
H       -0.50884500      -1.57668000       0.48398700
H        0.96355100       0.01035600      -1.13957600
H       -2.31525600      -1.70738300       0.16836000
H       -2.56260100       0.77972000       0.55459700
H       -0.75628700       0.90947500       0.87057500
