10
smiles: [C:3]([H:7])[H:8].[O:1]([C:2](=[C:4]([H:9])[H:10])[H:6])[H:5]
O        0.71787500       0.20657000       0.12851900
C       -0.21192600      -0.59607000      -0.43849900
C        0.76604500       1.73277700      -0.46129500
C       -0.96960900      -1.49248300       0.17660000
H        0.75742200       0.03341000       1.07303000
H       -0.27387900      -0.41708000      -1.50571200
H        0.17497400       2.19863800       0.35446100
H        1.80786400       1.95473700      -0.14896900
H       -1.67898000      -2.07634600      -0.39092000
H       -0.90485900      -1.66885400       1.24475000
