10
Extracted from Q-Chem output
O       1.362688     -0.485190      0.013151
C       0.126223     -0.758158     -0.482847
C       0.174454      2.041563     -0.491406
C      -0.925011     -1.155900      0.220107
H       1.377964     -0.677784      0.955212
H       0.095486     -0.596238     -1.553027
H      -0.487437      1.976873      0.395989
H       1.178440      2.177250     -0.044629
H      -1.868019     -1.328230     -0.276807
H      -0.876455     -1.315946      1.291939
