19
smiles: [C:1](/[C:2](=[C:4]1/[C:5]([H:16])([H:17])[C@:6]1([O:7][H:19])[H:18])[H:11])([H:8])([H:9])[H:10].[C:3]([H:12])([H:13])([H:14])[H:15]
C        1.38895000       0.98929100       1.27230600
C        0.31057100      -0.01910600       1.52254500
C        1.61583500      -1.19983800      -2.04876800
C       -0.80672900      -0.09855700       0.83410000
C       -2.11422800      -0.72235600       0.61591800
C       -1.64686300       0.44571700      -0.23451100
O       -2.32043600       1.65827300      -0.05931000
H        1.52278300       1.64303000       2.13835700
H        2.34896300       0.49890000       1.09300100
H        1.15753000       1.61037100       0.40589800
H        0.47390700      -0.72342300       2.33481600
H        2.52785000      -0.60514000      -2.03154900
H        0.94363600      -0.81302400      -2.81319100
H        1.86279200      -2.23626300      -2.27422700
H        1.12832900      -1.14682600      -1.07651700
H       -2.17466200      -1.70017700       0.15132800
H       -2.89959200      -0.49963900       1.32982500
H       -1.38204100       0.22322500      -1.26661400
H       -1.67038900       2.35292300       0.05668500
