14
smiles: [C:1]([O:2][C:3](=[C:4]([H:11])[H:12])[C:5](=[O:6])[H:14])([H:7])([H:8])[H:9].[H:10][H:13]
C        2.38592800      -0.12556600      -0.14094300
O        1.39361200      -0.70653200       0.68859200
C        0.11506900      -0.34756900       0.36599700
C       -0.76285900      -1.21047900      -0.12483200
C       -0.26627700       1.05194300       0.72195900
O       -1.30742400       1.57031500       0.42301700
H        3.35044700      -0.41536900       0.27069800
H        2.29679400      -0.49910400      -1.16576800
H        2.31664500       0.96776600      -0.15552400
H       -3.60142000       0.87591200      -0.71739500
H       -1.78218400      -0.89063000      -0.29303700
H       -0.48193800      -2.23315400      -0.33859200
H       -4.21609200       0.57498000      -1.01066600
H        0.49401200       1.59013800       1.32415900
