10
smiles: [C:1](=[O:2])([H:6])[H:7].[C:3]1([H:9])([H:10])[C:4]([H:8])=[N:5]1
C       -1.66093000       1.65354400      -0.08991600
O       -0.94666500       1.98260400       0.81089200
C        1.08820300      -1.48421500      -0.50763400
C        1.23734900      -0.41701700       0.45503500
N        2.20122100      -1.20183100       0.49338500
H       -1.43630400       0.77452500      -0.72419400
H       -2.58458300       2.21079500      -0.33868400
H        0.89573700       0.48499800       0.94271100
H        1.32523000      -1.32043500      -1.55393800
H        0.44911200      -2.33466000      -0.29318800
