10
Extracted from Q-Chem output
C      -1.164207      0.971453     -0.013922
O      -0.744802      0.424168     -1.058568
C       0.704491     -0.693864     -0.772655
C       0.888760     -0.391279      0.639505
N       1.836702     -1.024104      1.013596
H      -1.964779      0.508377      0.575512
H      -0.918893      2.018387      0.197446
H       0.098555      0.364342      1.100411
H       1.424227     -0.290316     -1.473521
H       0.292676     -1.664282     -1.022247
