18
Extracted from Q-Chem output
C       2.671979     -0.161970     -0.217475
C       1.336935      0.567901     -0.277764
C       0.146561     -0.380919     -0.214055
C      -1.199574      0.322566     -0.238684
C      -2.362044     -0.656881     -0.268986
O      -1.259099      1.145511      0.920377
H       2.767223     -0.726986      0.713104
H       2.777174     -0.869435     -1.044333
H       3.510861      0.534466     -0.269391
H       1.280033      1.154237     -1.201484
H       1.263528      1.282028      0.545182
H       0.186841     -1.081424     -1.055055
H       0.199093     -0.981148      0.701424
H      -1.243274      0.957736     -1.136748
H      -3.319546     -0.129237     -0.268952
H      -2.331262     -1.306573      0.608326
H      -2.326970     -1.278102     -1.166336
H      -2.098461      1.608230      0.926335
