10
Extracted from Q-Chem output
N       0.580685     -0.766699     -0.528806
C       1.197430     -0.330536      0.554193
O       0.671146      0.519393      1.300818
C      -1.017914      0.787991      0.345188
C      -0.743673     -0.147575     -0.713002
N      -1.651576     -0.225908     -1.523799
H       0.972130     -1.452668     -1.151945
H       2.190217     -0.728378      0.794354
H      -0.934522      1.847296      0.134636
H      -1.713687      0.499392      1.123564
