16
Extracted from Q-Chem output
C      -0.388894     -0.859101      0.641016
C      -1.383509      0.019125     -0.126102
C      -0.914940      1.452412     -0.344140
O       0.089111      1.578867     -1.330683
C       2.104561     -0.721666      0.398933
C       0.914561     -1.075844     -0.067515
H      -0.852176     -1.835689      0.816327
H      -0.198209     -0.420615      1.625772
H      -1.606120     -0.424611     -1.101447
H      -2.324134      0.044055      0.432483
H      -0.578074      1.881699      0.610672
H      -1.750606      2.061605     -0.693525
H       2.210551     -0.234370      1.363104
H       3.013367     -0.913634     -0.158598
H       0.853834     -1.562148     -1.039542
H       0.872225      1.113207     -1.025083
