16
Extracted from Q-Chem output
C      -0.518962     -1.083835      0.517723
C      -1.347624      0.102486     -0.002701
C      -0.524476      1.385640     -0.201138
O       0.669561      1.135218     -0.940150
C       1.661601     -0.003727      0.131122
C       0.832143     -1.101360     -0.182636
H      -1.067384     -2.009723      0.336566
H      -0.394034     -1.004628      1.605582
H      -1.767621     -0.174119     -0.974925
H      -2.190180      0.322998      0.658236
H      -0.253404      1.830616      0.763704
H      -1.116865      2.131906     -0.737498
H       1.533929      0.603262      1.026579
H       2.654703      0.047520     -0.301922
H       1.273854     -2.022390     -0.539535
H       0.604212     -0.074719     -1.160416
