16
Extracted from Q-Chem output
C       0.387434      1.061074     -1.055755
C      -0.300567      0.454694      0.592378
C       0.725312     -0.480670      1.162497
O       1.997479      0.139150      1.238132
C      -0.913298     -0.253521     -0.995854
C      -1.577265     -0.260248      0.323737
H      -0.104150      2.017346     -1.195358
H       1.324581      1.204215     -0.526389
H       0.681896      0.657587     -2.036691
H       0.810242     -1.452781      0.642075
H       0.343218     -0.689904      2.172627
H       2.647463     -0.521849      1.477083
H      -0.413622     -1.171515     -1.279591
H      -1.457666      0.217532     -1.803709
H      -2.494502      0.315533      0.415638
H      -1.669253     -1.255928      0.756042
