14
smiles: [C:1]([C:2](=[C:3]([H:11])[H:12])[C:5](=[O:6])[H:14])([H:7])([H:8])[H:9].[O:4]([H:10])[H:13]
C       -1.05697300      -0.11894500       0.55471200
C       -0.53338600       0.19519800      -0.80964500
C        0.75161500       0.26373700      -1.14497800
O        2.35682500      -0.52877400       1.77842400
C       -1.53047200       0.44928900      -1.87748300
O       -2.72117800       0.41556600      -1.71042500
H       -1.68812700       0.69500900       0.91573400
H       -0.24606000      -0.28249600       1.26339900
H       -1.68694100      -1.00980900       0.52376700
H        2.58510100       0.04760300       2.50875500
H        1.54499900       0.08949700      -0.42783000
H        1.04754800       0.49837200      -2.16209100
H        2.52430300      -1.41786900       2.09357600
H       -1.09969600       0.68023500      -2.87376600
