14
Extracted from Q-Chem output
C      -1.176595     -1.095658      0.170094
C      -0.275877      0.125223      0.246022
C       1.159866     -0.195804     -0.160757
O       1.976969      0.916308      0.150459
C      -0.796489      1.280097     -0.580688
O      -1.835236      1.265798     -1.184768
H      -2.203661     -0.834626      0.421188
H      -0.836746     -1.870519      0.859084
H      -1.188719     -1.512344     -0.839018
H      -0.225280      0.498357      1.277559
H       1.490120     -1.090517      0.381074
H       1.195915     -0.424528     -1.234695
H       2.858197      0.765581     -0.193145
H      -0.142464      2.172634     -0.601627
