14
Extracted from Q-Chem output
C      -1.105129     -0.983610      0.421179
C      -0.267432      0.086158     -0.240504
C       1.105947     -0.182325     -0.599670
O       1.839355      0.614695      0.677131
C      -0.944608      1.131868     -0.975643
O      -2.135024      1.361577     -0.949586
H      -1.974208     -0.529335      0.895799
H      -0.547787     -1.527769      1.188700
H      -1.481828     -1.715726     -0.299623
H       0.691566      0.771485      0.764192
H       1.485479     -1.197972     -0.521705
H       1.530997      0.367517     -1.433953
H       2.163802     -0.003312      1.346715
H      -0.270007      1.777291     -1.586743
