15
Extracted from Q-Chem output
O       0.855935     -2.638361      0.428740
C       0.581455     -1.484945      0.195863
C      -0.844106     -0.996820      0.275770
C      -1.092679      0.317201     -0.446639
C      -0.213611      1.406701      0.099568
C       1.730472      0.771579     -0.356143
C       1.662143     -0.535608     -0.181040
H      -1.480375     -1.799364     -0.098793
H      -1.080018     -0.885205      1.340265
H      -0.920405      0.203982     -1.521179
H      -2.141866      0.605646     -0.331853
H      -0.478502      2.399488     -0.276738
H      -0.137009      1.435977      1.184843
H       0.996977      1.687642     -0.372689
H       2.615137     -1.038596     -0.336063
