12
Extracted from Q-Chem output
O      -1.904889     -0.305179      1.245817
C      -1.671175     -0.198092      0.071561
C      -0.569943      0.654853     -0.459583
C       0.279610      1.306482      0.370882
N       1.655225     -0.185696      0.407663
C       1.242862     -1.210131     -0.191601
O       0.390770     -1.757764     -0.844335
H      -2.275000     -0.722420     -0.688290
H      -0.485893      0.742252     -1.536689
H       0.979623      2.036332     -0.010524
H       0.090266      1.291912      1.436856
H       2.265583     -1.651159      0.190531
