17
Extracted from Q-Chem output
O       2.724329     -0.287890     -0.438806
C       1.562711     -0.920082     -0.038149
C       0.927297     -0.440955      1.076205
C      -0.776547      0.942577      0.630500
C      -1.092707      0.984195     -0.713232
O      -2.211945      0.147982     -0.654711
C      -2.038663      0.121425      0.785980
H       2.921288     -0.528144     -1.345315
H       1.453951     -1.959899     -0.334654
H       0.578842     -0.477085     -1.200465
H       1.415712      0.345272      1.634164
H       0.286550     -1.110192      1.631828
H      -0.376240      1.710592      1.269657
H      -0.010483      0.099500     -1.412489
H      -1.019594      1.740744     -1.484425
H      -2.863841      0.648621      1.269549
H      -1.967218     -0.899548      1.166934
