14
Extracted from Q-Chem output
C       1.595845      0.189408     -1.055993
C       0.525181      0.231701     -0.014010
O       0.687418      1.004719      1.027634
C      -0.439758     -0.961052      0.142405
C      -1.626174     -0.093727     -0.266560
O      -0.869526      1.109820     -0.529383
H       2.411419     -0.422718     -0.661706
H       1.242403     -0.255236     -1.985323
H       1.972341      1.194844     -1.234628
H      -0.237099     -1.785997     -0.539476
H      -0.447709     -1.319836      1.169481
H      -2.388049      0.075563      0.495493
H      -2.108703     -0.419842     -1.187132
H      -0.374006      1.459221      0.527559
