12
Extracted from Q-Chem output
N      -1.995306     -1.601897     -0.890236
C      -1.618727     -0.597392     -0.484721
C      -1.122157      0.671317      0.041139
C      -0.019935      0.479138      1.080548
C       1.542810     -0.458684     -0.409760
N       1.128494      0.006142      0.894401
H      -0.759577      1.273127     -0.796103
H      -1.959016      1.207864      0.488582
H      -0.275191      0.791856      2.092884
H       2.605292     -0.251441     -0.533364
H       0.997832     -0.022148     -1.253881
H       1.412012     -1.542788     -0.450930
