15
Extracted from Q-Chem output
C       2.028013      0.750640     -0.244380
C       0.884917      0.260015     -1.052403
C      -0.548365     -1.297434      0.197887
C      -1.193498     -0.070895      0.424292
O      -0.586375      1.023886      0.225870
N      -2.492437      0.003749      0.813470
H       2.922629      0.729359     -0.880503
H       2.229455      0.091950      0.601180
H       1.869805      1.759744      0.125462
H       0.379747      0.961161     -1.699026
H       1.008375     -0.717052     -1.489330
H      -1.126623     -2.214956      0.154832
H       0.423816     -1.391659      0.664763
H      -2.906573      0.913644      0.900720
H      -2.927129     -0.768192      1.280070
