14
Extracted from Q-Chem output
C      -0.572847      1.182239     -0.480671
C      -0.118316     -0.115660      0.181785
C       0.120518     -1.211535     -0.845436
O      -1.125146     -0.610698      1.045966
C       2.367465     -0.264967      0.851819
C       1.155114      0.154817      0.979590
H      -0.760626      1.957551      0.266945
H       0.187276      1.555121     -1.167673
H      -1.496440      1.003390     -1.033660
H       0.403178     -2.137557     -0.345979
H       0.912298     -0.925706     -1.539032
H      -0.797526     -1.385817     -1.407205
H      -1.413677      0.092589      1.632303
H       1.118731      0.844312      1.832852
