14
Extracted from Q-Chem output
C      -0.869960      1.029730     -0.580067
C      -0.214187     -0.168992      0.107661
C       0.158095     -1.248572     -0.901190
O      -1.132139     -0.781551      1.007455
C       0.984917      0.277682      0.845482
C       1.940395      0.659280      1.458455
H      -1.152676      1.784894      0.155586
H      -0.187230      1.491218     -1.294674
H      -1.766172      0.694190     -1.103397
H       0.615082     -2.095445     -0.390875
H       0.858917     -0.860028     -1.640089
H      -0.745415     -1.590129     -1.408045
H      -1.283607     -0.182466      1.742232
H       2.793982      0.990190      2.001466
