12
Extracted from Q-Chem output
O       1.641937     -0.947115     -0.919403
C       0.534008     -0.487232     -0.351906
C       0.293238     -0.207362      1.108299
C      -0.883438      0.762824      0.591058
O      -0.520527      2.004191      0.379882
C      -0.581331      0.231703     -0.816300
H       1.685226     -0.691036     -1.847288
H      -0.612872     -1.103747     -0.677407
H       0.104400     -1.071254      1.745149
H       1.092929      0.412167      1.507836
H      -1.871879      0.546635      1.029055
H      -0.889595      0.551867     -1.804497
