15
smiles: [C:1]([O:2][C:3](=[C:4]([H:10])[H:12])[H:11])([H:7])([H:8])[H:9].[C:5](=[N:6][H:15])([H:13])[H:14]
C        1.83409200       0.51550800      -0.62974700
O        1.05510700       0.17136700       0.49656600
C        0.63220100      -1.11190300       0.53964700
C       -0.07716400      -1.59629400       1.54685500
C       -2.23908700       0.94950900      -0.53236400
N       -1.50561000       1.88159200      -0.10562100
H        1.27075500       0.38174000      -1.55891600
H        2.75278500      -0.07805200      -0.67338900
H        2.09525100       1.56623800      -0.52196600
H       -0.34990900      -0.97778500       2.39187700
H        0.91189300      -1.72576500      -0.31491700
H       -0.39476600      -2.62835500       1.52948100
H       -2.07912600      -0.11304800      -0.32279700
H       -3.09758700       1.19825600      -1.15723300
H       -0.74260000       1.51557500       0.46231800
