11
Extracted from Q-Chem output
N       1.423403      0.030619      0.769353
C       0.976790      0.713780     -0.392420
O       1.477420     -0.548320     -0.594559
C      -1.377284     -0.977266      0.369149
C      -1.379235      0.182153     -0.263823
O      -0.335397      1.005685     -0.604095
H       2.382074      0.322443      0.962412
H       1.565246      1.533845     -0.796616
H      -0.487835     -1.462234      0.736599
H      -2.333750     -1.456739      0.525789
H      -2.294010      0.643801     -0.613432
