12
Extracted from Q-Chem output
O      -0.130916      1.211433      1.132434
C       0.394067      1.044272     -0.175758
C      -0.912650      0.511406      0.176601
C      -0.760832     -0.982940      0.273717
O       0.635391     -1.224012      0.292224
C       1.325587     -0.132484     -0.290880
H       0.545118      1.945371     -0.759592
H      -1.852694      0.966674     -0.114441
H      -1.186022     -1.403529      1.186939
H      -1.239727     -1.456176     -0.594547
H       1.550141     -0.318098     -1.350364
H       2.263162     -0.000426      0.252416
