11
Extracted from Q-Chem output
N       2.106613      1.236227      0.423808
C       1.026060      0.617172      0.312494
O      -0.151108      1.125647      0.727895
C      -1.205954      0.293368      0.265207
C      -0.499186     -1.029495      0.009201
O       0.843361     -0.617690     -0.224006
H       2.875851      0.667264      0.090790
H      -1.630457      0.720481     -0.646993
H      -1.973383      0.237205      1.034828
H      -0.527659     -1.691547      0.878216
H      -0.864138     -1.558633     -0.869037
