12
Extracted from Q-Chem output
O       0.874130      1.491851     -1.278525
C       0.423931      0.652206     -0.313749
C       0.673165     -0.845685     -0.326430
C      -0.619728     -1.001197      0.537877
C      -0.807444      0.510098      0.463850
O       0.397795      1.090089      1.024222
H       0.564034     -1.278444     -1.319821
H       1.616448     -1.159430      0.118986
H      -1.405596     -1.558158      0.028754
H      -0.479096     -1.392292      1.545371
H      -1.708763      1.104658      0.527990
H       0.678159      2.394032     -1.009703
