14
Extracted from Q-Chem output
C       2.119960      0.595950      0.545223
N       1.572825     -0.582435      0.468197
C       0.296902     -0.622360      0.142334
O      -0.477487     -1.712622      0.228861
C      -1.458916     -0.944168     -0.538428
C      -1.866771      0.319271      0.126143
C      -0.538435      0.246893     -0.613776
H       1.578833      1.473898      0.887161
H       3.204122      0.658950      0.516352
H       1.550867      1.405071     -1.102413
H      -1.982013     -1.490512     -1.308449
H      -1.889916      0.378989      1.210312
H      -2.664998      0.857178     -0.373234
H       0.749590      1.190422     -1.222132
