14
Extracted from Q-Chem output
N       1.686588     -1.731834     -0.107209
C       0.983123     -0.740786     -0.379391
O       1.492105      0.399559     -1.020484
C       0.567802      1.379449     -1.006389
C      -0.554609      1.022151     -0.197331
C      -1.476843     -0.873334     -1.045317
C      -0.484084     -0.519299     -0.056657
H       2.653257     -1.604954     -0.397048
H       0.688644      2.161870     -1.743608
H       0.276831      1.677001      0.410737
H      -1.480927      1.578933     -0.207833
H      -1.317141     -0.640848     -2.089116
H      -2.434806     -1.259371     -0.733545
H      -0.704224     -0.890712      0.939749
