12
Extracted from Q-Chem output
O       1.989622     -1.796281     -1.125780
C       0.851391     -1.403154     -0.616370
C      -2.104058      1.274759      0.770534
C      -1.082963      0.663986      0.191802
O       0.046503      0.346029      0.871751
C       1.125551     -0.118114      0.098946
H       1.843603     -2.618048     -1.605891
H      -2.990963      1.492961      0.194238
H      -2.077529      1.550764      1.816626
H      -1.100609      0.366195     -0.853357
H       1.968078     -0.241738      0.786250
H       1.427064      0.627600     -0.654384
