15
Extracted from Q-Chem output
C       1.466208      1.002714      0.794135
C       1.439618      0.080491     -0.235470
C       0.329487     -1.184527      0.033453
O      -0.559520     -1.121367      1.034261
C      -1.396808      0.039071      0.848385
C      -1.122093      0.553925     -0.572645
C       0.109300     -0.220698     -1.001799
H      -0.948776      1.629033     -0.570372
H       2.517194      1.239900      1.026158
H       2.304674     -0.336253     -0.754261
H       0.847767     -2.128311     -0.053170
H      -1.103415      0.774549      1.594274
H      -2.426457     -0.283031      1.007539
H      -1.943483      0.324023     -1.252908
H       0.266137     -0.454008     -2.046030
