15
Extracted from Q-Chem output
C       1.248564      1.176255      0.506776
C       1.421233     -0.206523     -0.101970
C       0.405720     -1.262548      0.244901
O      -0.568786     -1.017810      1.224311
C      -1.489079     -0.075963      0.697980
C      -0.693624      0.686008     -0.346823
C       0.209041     -0.397105     -0.953166
H      -0.057841      1.395922      0.424134
H       1.562773      1.871565     -0.294806
H       2.417977     -0.509155     -0.399903
H       0.675563     -2.305791      0.145489
H      -1.853126      0.545807      1.517109
H      -2.340590     -0.585707      0.224348
H      -1.226624      1.362084     -1.009480
H       0.116879     -0.734817     -1.977104
