11
Extracted from Q-Chem output
C       2.974669     -0.500244      0.364302
C       1.794206     -0.491537      0.080411
C       0.503347     -0.415254     -0.312668
C      -0.700142     -0.790990      0.222934
N      -1.719011     -0.021770      0.417552
N      -1.956504      2.448948     -0.846265
C      -1.267509      1.547826     -0.605416
H       4.008584     -0.512300      0.621128
H      -0.762771     -1.875306      0.360665
H      -2.626725     -0.469297      0.491387
H      -0.250096      1.050519     -0.765348
