12
Extracted from Q-Chem output
O       2.533063     -0.257046     -0.281181
C       1.341294     -0.123337     -0.182148
N       0.614145      1.027693     -0.017031
C      -0.798657      0.761682     -0.254668
C      -0.900451     -0.734879     -0.064964
N       0.386723     -1.152751     -0.224131
H       1.054547      1.894188     -0.271053
H      -1.071268      0.981940     -1.294212
H      -1.450016      1.325084      0.408953
H      -1.033690     -0.599291      1.615134
H      -1.498645     -1.082535      0.989970
H       0.679369     -2.111167     -0.294591
