11
Extracted from Q-Chem output
N       1.939549     -0.458375     -0.307177
C       0.716106     -0.185028     -0.122047
C       0.251869      1.171604      0.370111
O      -1.179525      1.090452      0.455468
C      -1.525863     -0.146019      0.064510
C      -0.517282     -0.950603     -0.285539
H       0.648713      1.404730      1.358338
H       2.052417     -1.413738     -0.637637
H       0.515502      1.968147     -0.325919
H      -2.589520     -0.342726      0.080527
H      -0.600860     -1.970542     -0.624455
