11
Extracted from Q-Chem output
N       1.814318     -0.323072      0.209438
C       0.545518     -0.189686     -0.114626
C       0.161516      1.120637      0.332365
O      -1.258517      1.048058      0.528101
C      -1.626508     -0.132638      0.045791
C      -0.630549     -0.922659     -0.446799
H       1.507111      0.841418      0.835519
H       2.421310     -0.964096     -0.288741
H       0.377034      1.919961     -0.376534
H      -2.680627     -0.362270      0.139490
H      -0.745497     -1.931813     -0.806485
