16
smiles: [C:1]([N:2]([C:3]([C:4](=[O:5])[H:15])([H:12])[H:13])[H:11])([H:8])([H:9])[H:10].[O:6]=[C:7]([H:14])[H:16]
C       -2.47969300      -0.38062300      -0.21442800
N       -1.42766400      -0.26445100       0.78376800
C       -0.58167000       0.88349300       0.60188100
C        0.41009200       0.81722500      -0.54014200
O        0.61491600      -0.16365800      -1.20052400
O        2.62641100       0.18055600       1.21300000
C        3.10977100      -0.72898700       0.60554900
H       -3.16905900       0.46096200      -0.11012900
H       -3.04819600      -1.29255900      -0.03091900
H       -2.11549200      -0.40496600      -1.24950100
H       -0.86032600      -1.10174900       0.77672600
H        0.01365300       1.07145300       1.50615000
H       -1.19312100       1.78369500       0.47024300
H        4.02252300      -1.24779900       0.95646600
H        0.98533100       1.75165800      -0.71967900
H        2.67066100      -1.10114400      -0.33992300
