17
Extracted from Q-Chem output
C      -2.223241     -0.935712      0.809769
C      -1.057630     -0.109602      0.387673
C       0.190707     -0.713368      0.078324
O       0.466489     -1.006308     -1.307630
C       1.383056      0.403046      0.467035
C       1.111887      1.477403     -0.416630
O       1.781064      1.564641     -1.563050
H      -2.914978     -0.383876      1.451127
H      -1.877089     -1.818206      1.363676
H      -2.806459     -1.327318     -0.035367
H      -1.170955      0.963461      0.340856
H       0.343694     -1.659825      0.627971
H       1.274324     -1.528030     -1.354204
H       1.295308      0.633017      1.521531
H       2.334551     -0.078477      0.243081
H       0.426458      2.281541     -0.176546
H       1.343290      2.171669     -2.164829
