10
Extracted from Q-Chem output
N       0.311712      1.193433     -0.156304
C       1.362617      0.443571      0.118839
C       0.722170     -0.853216      0.556399
C      -0.763561     -0.656372      0.467215
C      -0.960953      0.581973      0.035928
H       0.402257      2.141838     -0.483595
H       1.069116     -1.100607      1.565309
H       1.091160     -1.663057     -0.082319
H      -1.527689     -1.380147      0.704715
H      -1.872729      1.125206     -0.165024
