9
Extracted from Q-Chem output
O      -1.533475     -0.990118     -0.849314
C      -0.358347     -0.821501     -0.294579
N       0.365755     -1.212460      0.641239
C       0.887114     -0.125007     -0.301944
N       1.028003      1.213312      0.235369
N      -0.007887      1.632732      0.748373
H      -2.040770     -1.622069     -0.324009
H       1.714363     -0.392105     -0.948543
H       0.197957      2.566217      1.122379
