9
Extracted from Q-Chem output
O      -1.713501     -0.609317     -0.352202
C      -0.471166     -0.484952      0.036523
N       0.442453     -1.178945      0.500381
C       1.145125     -0.144502     -0.362627
N       1.121795      1.139704      0.024606
N      -0.100653      1.370649      0.348373
H      -1.939806     -1.548869     -0.381708
H       1.903356     -0.544313     -1.017848
H      -0.161018      2.073520      1.092599
