11
smiles: [C:2](=[O:3])=[C:4]1[C:5]([H:10])([H:11])[O:6]1.[N:1]([H:7])([H:8])[H:9]
N       -1.10773700       0.24924200       1.71102400
C       -0.75371300      -0.98015500      -0.70339800
O       -1.76360400      -1.55756500      -0.63344400
C        0.40520800      -0.41817600      -0.77869400
C        1.57536300       0.11049900      -1.41770000
O        1.17956200       0.51011700      -0.09750300
H       -0.60683200       1.12753400       1.71191300
H       -2.07827800       0.45220900       1.90937600
H       -0.75029200      -0.30592500       2.47664400
H        2.47321500      -0.49832800      -1.46090300
H        1.46535900       0.87835400      -2.17743600
