13
smiles: [C:1](=[C:2]([H:9])[H:10])([H:6])[H:7].[C:3]1([H:8])([H:11])[C:4]([H:12])([H:13])[O:5]1
C       -1.94934800       0.40362200       1.29658900
C       -1.74116200      -0.57458300       0.43219100
C        1.47890000      -0.34955700      -1.34499400
C        1.72089400       0.51576600      -0.19638400
O        1.64850700      -0.89026000      -0.04821700
H       -2.85530000       0.99866000       1.27448300
H       -1.22325700       0.64960900       2.06296000
H        0.47604700      -0.42830800      -1.75477700
H       -2.46725300      -0.82050300      -0.33420200
H       -0.83519200      -1.16959200       0.45423500
H        2.28631500      -0.55287200      -2.04246600
H        2.70636900       0.94848300      -0.05020400
H        0.89504900       1.07069400       0.23915400
