13
Extracted from Q-Chem output
C      -1.625196      0.494505      0.706311
C      -1.140619     -0.665504      0.035120
C       0.767176     -0.383470     -0.741236
C       1.769851      0.458432     -0.086109
O       1.702639     -0.936180      0.160207
H      -2.280859      1.179291      0.191177
H      -1.432783      0.624860      1.759450
H      -0.377579      0.348487     -0.055323
H      -1.580609     -0.946886     -0.914565
H      -0.737903     -1.483872      0.621032
H       0.887819     -0.662120     -1.788887
H       2.638761      0.799795     -0.640996
H       1.471258      1.089715      0.751782
