11
Extracted from Q-Chem output
O      -1.950548     -0.922602     -0.916980
C      -1.686166      0.093568     -0.338084
C      -0.399361      0.307984      0.414895
C       0.378800      1.550265     -0.034717
N       1.618907      1.092563     -0.335696
C       1.653462     -0.231104     -0.169306
N       0.544333     -0.772964      0.283283
H      -2.369849      0.958585     -0.311983
H      -0.646771      0.503640      1.467977
H       2.525786     -0.838801     -0.388580
H       0.341550     -1.757023      0.330007
