16
Extracted from Q-Chem output
C       1.556228     -1.323519      0.497211
C       0.711166      0.708505     -0.724257
C       0.738071     -0.788262     -0.678943
C      -1.990084      0.236320      0.881613
C      -1.672081      1.135257     -0.042545
C      -0.315016      1.515808     -0.457970
H       1.126679     -1.006110      1.449587
H       2.583837     -0.954537      0.463601
H       1.591330     -2.414465      0.485899
H       1.643869      1.180745     -1.025213
H       1.181504     -1.153945     -1.610690
H      -0.278602     -1.182538     -0.635323
H      -1.233058     -0.301794      1.440195
H      -3.024398      0.025173      1.124375
H      -2.477941      1.680448     -0.529211
H      -0.160740      2.582734     -0.598118
