11
Extracted from Q-Chem output
C      -0.646090      0.715179     -0.275716
C      -0.902771     -0.756674      0.116018
C       0.456211     -0.891481      0.789284
O       1.498099     -0.143130     -0.802960
C       0.767644      0.498033      0.251703
H      -1.219071      1.423062      0.322293
H      -0.714697      0.994701     -1.327202
H      -1.660615     -0.896670      0.895667
H      -1.114543     -1.487373     -0.664748
H       2.246076     -0.604250     -0.401604
H       1.341835      1.271475      0.762191
