10
Extracted from Q-Chem output
O      -0.205864     -0.893315     -1.507920
C       0.204280     -0.048184     -0.490391
C       0.983337     -0.770732      0.589163
O       1.516363      0.156103      1.346920
C      -0.977461      0.663754      0.152724
O      -2.101967      0.424691     -0.186723
H      -1.171800     -0.902420     -1.498261
H       0.852646      0.752548     -0.887028
H       2.012525     -0.274558      2.051430
H      -0.741448      1.396486      0.942365
