19
Extracted from Q-Chem output
C      -2.060640     -0.162266      0.244874
C      -0.572399     -0.304432     -0.015257
C       0.106717      0.876303     -0.772703
C       1.194567      0.865630      0.277922
C      -0.248485     -1.643346     -0.661744
C       2.432146      1.322506      0.319681
C       0.366371     -0.008157      1.193241
H      -2.628833     -0.231650     -0.686740
H      -2.292091      0.800181      0.707125
H      -2.417587     -0.950389      0.913406
H      -0.765531     -1.747794     -1.619210
H       0.406738      0.696164     -1.806861
H      -0.493184      1.789690     -0.734729
H       0.824144     -1.743395     -0.846253
H      -0.557191     -2.471615     -0.018575
H       2.849761      1.892334     -0.502642
H       3.072514      1.139546      1.175104
H      -0.136407      0.570599      1.972831
H       0.864813     -0.862096      1.655966
