19
Extracted from Q-Chem output
C      -2.428533     -0.013999      0.280923
C      -0.938752     -0.147586      0.061559
C      -0.171865      0.987458     -0.666415
C       0.957044      0.749252      0.311094
C       1.060085     -2.261197     -1.180259
C       2.268446      0.895743      0.248348
C       0.026060      0.032011      1.262796
H      -2.969998     -0.042828     -0.667101
H      -2.666011      0.932242      0.775132
H      -2.807980     -0.824694      0.906719
H      -0.716228     -1.103431     -0.436848
H       0.034767      0.877689     -1.731345
H      -0.651020      1.956213     -0.494528
H       1.665239     -1.578662     -1.810481
H       1.676929     -2.322014     -0.260909
H       2.740768      1.369715     -0.604586
H       2.913022      0.552250      1.049395
H      -0.394679      0.720605      2.002018
H       0.395135     -0.856784      1.775357
