17
smiles: [C:1](=[C:2]([O:3][C@@:4]1([H:12])[C:5]([H:13])([H:14])[C:6]1=[C:7]([H:16])[H:17])[H:11])([H:8])[H:9].[H:10][H:15]
C       -2.46706600      -1.10024100       0.92506700
C       -1.21606500      -0.69303300       0.78299200
O       -0.19348900      -1.56797000       0.62233000
C        1.00847600      -1.10220700       0.07995400
C        1.06900700      -0.42453400      -1.28208800
C        1.38350200       0.30506800      -0.04387100
C        1.72884800       1.43630400       0.52751900
H       -2.72806400      -2.14959400       0.88091400
H       -3.24610800      -0.37460300       1.10744900
H       -1.36228500       2.43507600      -1.48361600
H       -0.93391500       0.35568900       0.82271600
H        1.79293900      -1.81394400       0.30645400
H        1.85831000      -0.71024600      -1.96797800
H        0.11652600      -0.19642700      -1.75121400
H       -0.81728600       2.28395100      -0.99936400
H        1.80452000       1.52009300       1.60572500
H        1.94525500       2.32003500      -0.06198100
