19
smiles: [C:1]([C:5]([H:15])([H:16])[H:17])([H:8])([H:9])[H:10].[C:2]1([H:11])=[C:7]([H:19])[C:6]([H:18])=[C:4]([H:14])[C:3]1([H:12])[H:13]
C       -0.00223000      -2.14283200       0.13558900
C       -0.36606400       1.52023000      -0.63691900
C       -0.47818100       1.49468900       0.85601300
C        0.95098300       1.51168300       1.30294000
C       -1.22731700      -2.10842500      -0.76793600
C        1.74991100       1.54296200       0.22937300
C        0.92668000       1.54828200      -0.98301400
H        0.69601400      -2.92451000      -0.16990100
H        0.53630200      -1.19346300       0.11216000
H       -0.27907300      -2.33775300       1.17362400
H       -1.21467200       1.51687900      -1.30647100
H       -1.03642000       2.35672600       1.23892600
H       -1.00712000       0.60312600       1.21165500
H        1.26122700       1.50033500       2.33839600
H       -0.95081900      -1.91236700      -1.80583900
H       -1.92609600      -1.32763400      -0.46146600
H       -1.76501800      -3.05828100      -0.74519500
H        2.83157800       1.56171100       0.23881000
H        1.31752700       1.57203300      -1.99152400
