19
Extracted from Q-Chem output
C      -1.261258     -1.339056     -0.099352
C      -1.096620      1.047033      0.010092
C      -0.062705      1.081199      1.083130
C       1.180802      0.859922      0.287918
C       1.068476     -1.486751      0.234500
C       0.912777      1.160779     -1.027480
C      -0.480232      1.269440     -1.197115
H      -1.154273     -1.573481     -1.152537
H      -1.065114     -2.179721      0.553992
H      -2.245790     -0.933878      0.106767
H      -2.151889      1.179527      0.198556
H      -0.023080      2.105843      1.482646
H      -0.221738      0.400174      1.914347
H       2.164840      0.844403      0.732880
H       0.803009     -2.176970     -0.555390
H       0.864832     -1.872312      1.227310
H       2.109625     -1.205239      0.134015
H       1.646098      1.217886     -1.820241
H      -0.987203      1.420311     -2.140569
