11
Extracted from Q-Chem output
C      -1.348458     -0.214672      0.162662
N      -0.171713     -0.032730     -0.696072
C       1.098024      0.483878     -0.059480
N       1.371502      1.589999     -0.543046
C       1.712005     -0.347771      0.949757
N       2.170050     -1.026548      1.754825
H      -1.521281      0.713013      0.706839
H      -1.187425     -1.024664      0.875180
H      -2.217994     -0.439306     -0.452480
H      -0.016383     -0.835110     -1.302328
H       0.117580      1.070140     -1.177014
