12
Extracted from Q-Chem output
C      -1.674514     -0.484488     -0.432361
C      -0.772494     -0.240936      0.748483
O      -0.562914     -1.064894      1.617394
C      -0.304786      1.147037      0.947399
C       1.863819      0.401209      0.263540
O       0.925533      1.416911      0.720886
H      -1.394052      0.132143     -1.289765
H      -1.643230     -1.541438     -0.692496
H      -2.697199     -0.219304     -0.157105
H       2.036670     -0.308156      1.069141
H       1.457030     -0.105481     -0.611251
H       2.776208      0.931843      0.007456
