13
smiles: [C:3]([C:4]([C:5]#[N:6])([H:12])[H:13])([H:9])([H:10])[H:11].[O:1]([C:2][H:8])[H:7]
O        2.02516600       1.78287600       0.82643200
C        2.12400500       0.50823800       0.57433600
C       -0.79853600      -1.06985600      -1.17530500
C       -1.19439800      -0.67742600       0.24800400
C       -0.95273300       0.73823300       0.52099400
N       -0.75736000       1.85114300       0.71855900
H        1.09183700       2.02962100       0.81781800
H        3.22419400       0.33833700       0.60948800
H        0.26132000      -0.88514300      -1.34969000
H       -0.99441700      -2.13004800      -1.33571100
H       -1.36790800      -0.49955400      -1.90895100
H       -0.63346300      -1.26009200       0.98157800
H       -2.25335100      -0.87610300       0.42588800
