13
Extracted from Q-Chem output
C      -0.482762      1.940094      0.093990
C      -0.784015     -1.547779     -0.592702
C       0.537854     -1.264647      0.033487
C       1.039498      0.053763     -0.579797
N      -0.151255      0.720335      0.013276
C      -0.666095     -0.510128      0.552089
H      -1.374705      2.209338      0.645676
H       0.135537      2.695788     -0.372509
H      -1.219760     -2.425355     -0.096114
H       1.181518     -1.892949      0.636447
H       1.943305      0.490387     -0.153690
H       1.019328      0.102562     -1.670149
H      -1.195395     -0.492185      1.494132
