16
Extracted from Q-Chem output
O      -1.822253      0.143443      0.936420
C      -1.065598      0.104639     -0.208373
C      -0.583322     -1.096577     -0.712280
C       1.329955     -0.852245      0.490148
C       1.537052      0.496607      0.652767
C      -0.313701      1.316141     -0.423909
H      -2.367432     -0.645307      0.966893
H      -1.520628      0.952867     -1.067452
H      -1.073051     -2.024236     -0.436141
H      -0.113986     -1.087756     -1.686400
H       1.898785     -1.409395     -0.243450
H       0.932534     -1.440307      1.307512
H       1.278485      0.976327      1.588179
H       2.255049      1.020087      0.033503
H      -0.609034      2.213979      0.101434
H       0.265324      1.396613     -1.330098
