12
Extracted from Q-Chem output
N       2.079725     -0.748513      0.330507
C       0.836431     -0.391606      0.116133
C      -0.700341      1.944049     -0.553452
N      -1.332500      1.005431      0.078877
C      -0.809487     -0.328229      0.392720
O      -1.400491     -0.987789      1.233593
N      -0.035738     -0.919851     -0.714452
H       2.535803     -1.476309     -0.201017
H       2.632864     -0.238690      0.994789
H      -1.386908      2.807516     -0.597738
H      -2.257055      1.086719      0.495697
H      -0.067105     -1.870850     -1.072183
