14
Extracted from Q-Chem output
C      -1.793328      0.744875      0.008055
C      -0.985371     -0.551833     -0.014313
C       0.479662     -0.371047      0.280004
C       1.508055     -0.140324     -0.709272
N       2.728651      0.066012     -0.414945
N       1.244355     -0.356152      2.581649
N       0.874037     -0.360911      1.524650
H      -2.842727      0.554994     -0.226204
H      -1.748186      1.217515      0.991173
H      -1.406318      1.459221     -0.721090
H      -1.413766     -1.270544      0.688886
H      -1.061435     -1.018944     -0.999737
H       1.128271     -0.166766     -1.737674
H       3.288102      0.193904     -1.251183
