15
Extracted from Q-Chem output
C      -1.377927     -1.250926      0.514084
N      -0.264763     -0.580793     -0.210638
C       0.943868     -1.104558      0.342700
C       1.877002     -0.010832      0.284044
C       1.253134      1.079527     -0.252374
C      -0.102769      0.694907     -0.505461
N      -1.137953      1.471890     -0.882504
H      -1.857411     -0.522130      1.175324
H      -2.100891     -1.702074     -0.167625
H       0.093921     -1.588547      1.204727
H       1.261995     -2.049813     -0.101118
H       2.916627     -0.064910      0.573931
H       1.660403      2.068029     -0.404062
H      -2.056206      1.070795     -0.762534
H      -1.056998      2.465950     -0.776725
