13
Extracted from Q-Chem output
N       1.850308      0.263374      0.658253
C       0.870045      0.625484     -0.243162
O       1.081541      1.385194     -1.159362
C      -0.186387     -1.058833     -0.631658
C      -1.505947     -0.495729     -0.568796
C      -0.635134      0.485404      0.312489
H       1.713386     -0.572529      1.199411
H       2.782251      0.381603      0.294880
H      -0.044022     -1.704367      0.251627
H      -1.875524      0.008188     -1.457265
H      -2.290776     -0.961298      0.023865
H      -0.712968      0.271253      1.371609
H      -0.980080      1.481535      0.062182
