14
Extracted from Q-Chem output
C       1.430006      0.079067     -0.400305
N       2.283429      0.423570      0.734265
C       0.316197     -0.820314      0.038810
C      -0.955051     -0.512615     -0.101863
C      -2.027127      0.393739     -0.455904
N      -2.256132     -0.971996      0.089623
H       2.053640     -0.449780     -1.127897
H       1.001371      0.949045     -0.917021
H       3.070015      0.985131      0.437438
H       0.588407     -1.762771      0.503143
H       1.761694      0.962136      1.413247
H      -2.338857      0.521407     -1.486011
H      -2.207294      1.246327      0.191818
H      -2.554232     -0.979442      1.057709
