14
Extracted from Q-Chem output
C       1.550203      0.277745     -0.828798
N       1.632000      0.148251      0.633153
C       0.542740     -0.541721     -0.138326
C      -0.635054      0.250655      0.351018
C      -1.928569      0.150074     -0.362199
N      -1.724819     -0.589232      0.881741
H       2.354995     -0.201493     -1.369328
H       1.258312      1.265343     -1.165433
H       2.414736     -0.332354      1.056914
H       0.598090     -1.625471     -0.191425
H       0.803441      0.823950      1.055609
H      -2.050653     -0.482638     -1.238548
H      -2.576928      1.021645     -0.357269
H      -2.169676     -0.104992      1.651417
