15
Extracted from Q-Chem output
C       1.793250      0.893413      1.233155
C       1.635958     -0.017461      0.288634
C       0.362450     -0.775316      0.026533
O      -0.669651     -0.429262      0.935032
C      -1.810030      0.057692      0.245058
C      -1.443364     -0.010363     -1.204266
C      -0.220190     -0.489096     -1.332840
H       2.738913      1.403781      1.366151
H       0.980206      1.145867      1.902436
H       2.462200     -0.274922     -0.370036
H       0.578071     -1.849629      0.134410
H      -2.035224      1.081223      0.568868
H      -2.677748     -0.568234      0.486241
H      -2.104866      0.298380     -2.002010
H       0.322466     -0.649046     -2.254300
