10
Extracted from Q-Chem output
O       3.094638     -0.171837      0.276740
C       2.046330     -0.594454      0.353983
N       0.404289      0.349424     -0.096523
C      -0.513740      1.231608     -0.472412
N      -1.752048      0.742634     -0.383938
C      -1.542096     -0.498282      0.070699
N      -0.259108     -0.760737      0.251469
H       1.000312     -1.305361      0.532950
H      -0.267728      2.226623     -0.808177
H      -2.321099     -1.217491      0.271236
