14
Extracted from Q-Chem output
C      -1.076987      0.785801     -0.305195
C      -0.664758     -0.497304      1.036210
O      -0.399046     -1.588162      0.176207
C       0.796841     -1.242636     -0.435191
C       0.939297      0.236197     -0.226093
N       1.713941      1.124866     -0.444591
O       0.307109     -0.046246      1.700088
H      -0.935690      1.794921      0.078305
H      -2.128386      0.510246     -0.184354
H      -0.909168      0.752046     -1.384869
H      -1.639164     -0.663581      1.505545
H       0.769499     -1.486746     -1.498649
H       1.669473     -1.696424      0.043272
H       1.654122      2.098321     -0.206175
