12
Extracted from Q-Chem output
N       0.676052      1.363589     -0.039115
C       1.644279      0.592998      0.391565
C       0.990657     -0.784062      0.287557
O       0.053340     -0.715065      1.419838
C      -0.977701     -0.413976      0.518062
C      -0.543284      0.698830     -0.443486
C      -0.192973     -0.719886     -0.710742
H       1.623902     -1.663256      0.338868
H      -2.000234     -0.584002      0.826172
H      -1.274431      1.243281     -1.023114
H       0.708162      2.364071      0.074667
H      -0.389891     -1.291742     -1.604923
