12
Extracted from Q-Chem output
N       1.267584      1.532265      0.138454
C       1.777009      0.477734      0.334580
C       0.917425     -0.791468      0.304214
O       0.045707     -0.613970      1.432941
C      -1.050780     -0.368466      0.528595
C      -0.796303      0.708880     -0.427843
C      -0.209249     -0.598394     -0.716417
H       1.457389     -1.733759      0.328152
H      -2.002544     -0.778584      0.844427
H      -1.616465      1.075862     -1.032872
H       0.672495      2.302380     -0.111137
H      -0.334898     -1.191441     -1.610196
