14
smiles: [C:3]1([O:4][H:10])([H:9])[C:5]([H:11])([H:12])[C:6]1([H:13])[H:14].[O:1]([C:2][H:8])[H:7]
O        2.09734700      -0.96742700       0.62599800
C        2.72548900      -1.10827700      -0.50532400
C       -0.33112100       0.84623800      -0.09009200
O        0.06481500       1.54576000       1.05098700
C       -0.90446200      -0.52893400       0.05685000
C       -1.79296400       0.64768600      -0.25945300
H        1.12928400      -0.95040100       0.56522600
H        1.94664400      -1.18023300      -1.30802700
H        0.25704200       1.05778800      -0.97939500
H        0.88630300       1.16605200       1.36844700
H       -0.96065300      -0.92893400       1.06104000
H       -0.70825300      -1.25855500      -0.71796000
H       -2.21651300       0.73019800      -1.25134400
H       -2.41787500       1.01881300       0.54163400
