14
Extracted from Q-Chem output
O       2.415595     -0.199027      0.343923
C       1.665781     -0.186112     -0.789831
C      -0.219568      0.401819      0.127812
O       0.130886      1.045827      1.287543
C      -1.261260     -0.661024      0.101562
C      -1.530796      0.704587     -0.495200
H       2.352122     -1.043449      0.805551
H       1.252852     -1.179249     -1.000551
H       0.703072      0.609377     -0.758057
H       1.034686      0.778798      1.505769
H      -1.734198     -0.885070      1.049881
H      -1.155848     -1.502249     -0.572090
H      -1.586025      0.791521     -1.573318
H      -2.177536      1.376305      0.054702
