14
Extracted from Q-Chem output
O      -0.338035      2.395669     -0.355828
C      -0.056522      1.090085     -0.137913
C      -1.218986      0.154423     -0.001461
C      -0.542180     -1.225055     -0.050949
C       0.942794     -0.977373      0.296983
C       1.121035      0.491103      0.016495
H      -1.729726      0.339009      0.949458
H      -1.955882      0.304054     -0.793070
H      -1.014659     -1.948979      0.613305
H      -0.611013     -1.623356     -1.064987
H       1.606689     -1.609253     -0.297909
H       1.153128     -1.206317      1.348103
H       2.082871      0.989800     -0.000016
H       0.480177      2.897053     -0.387028
