14
Extracted from Q-Chem output
O      -0.263833      2.338438     -0.597895
C      -0.215778      1.177776     -0.062817
C      -1.295362      0.171776      0.161749
C      -0.522612     -1.126989     -0.166704
C       0.965855     -0.853635      0.178644
C       1.080403      0.655942      0.075413
H      -1.585808      0.201358      1.216699
H      -2.182497      0.333363     -0.448297
H      -0.924808     -1.991603      0.360985
H      -0.618362     -1.328171     -1.235998
H       1.627932     -1.398183     -0.496159
H       1.195909     -1.194079      1.193229
H       1.769946      1.214660      0.702571
H       0.925571      1.833204     -0.812916
