15
Extracted from Q-Chem output
C      -1.087014      1.338171     -0.831351
C      -0.276220      0.180907     -0.354646
C       1.205795      0.142564     -0.489149
C       1.917438      0.503359      0.749742
N       2.443382      0.792691      1.727757
C      -0.342256     -1.850787      0.971324
N      -0.846788     -0.799923      0.330762
H      -0.912583      2.248972     -0.245847
H      -0.868007      1.579504     -1.875811
H      -2.156287      1.119097     -0.770217
H       1.529802      0.831576     -1.270674
H       1.539323     -0.864715     -0.777214
H       0.721584     -1.945479      1.104085
H      -1.034317     -2.552769      1.401371
H      -1.857028     -0.741062      0.360266
