15
Extracted from Q-Chem output
C      -0.981538      1.331479     -0.432508
C      -0.252257      0.033754     -0.326212
C       1.247630      0.018716     -0.486532
C       1.964993      0.649137      0.625339
N       2.506609      1.161288      1.497471
C      -0.525715     -1.623085      0.890842
N      -0.946388     -1.119038     -0.304644
H      -0.345499      2.139115     -0.796330
H      -1.842312      1.222171     -1.102412
H      -1.378939      1.639255      0.540595
H       1.534787      0.563293     -1.397124
H       1.593735     -1.011046     -0.578485
H      -0.667289     -1.032403      1.783676
H      -0.164880     -2.644053      0.972139
H      -1.766112     -1.346475     -0.855414
