13
smiles: [C:4]1([H:9])=[C:5]([H:11])[C:6]1([H:12])[H:13].[O:1](/[C:2](=[N:3]\[H:8])[H:7])[H:10]
O        1.29292400      -1.63920800      -0.33959700
C        2.37709800      -1.11711800       0.27070800
N        2.51036400      -0.01264200       0.85487500
C       -0.77763700       0.98546400      -0.58900700
C       -1.20130900       0.46296700       0.50546400
C       -2.24062300       0.65393600      -0.55972300
H        3.21022300      -1.81277700       0.20369500
H        1.65931800       0.54798400       0.85117200
H        0.02850000       1.39203600      -1.17305800
H        0.55551400      -1.02261200      -0.28199700
H       -1.00869300       0.11477800       1.50448700
H       -2.97240700       1.45440500      -0.45898500
H       -2.60813000      -0.20947500      -1.11286000
