13
Extracted from Q-Chem output
O       0.825493     -1.580811      0.724847
C       1.454718     -0.945782     -0.203060
N       1.809144      0.303050     -0.118771
C      -0.221584      1.029386     -0.085939
C      -0.966776      0.224824      0.709672
C      -1.193889      0.167305     -0.780880
H       1.564185     -1.449959     -1.168014
H       1.787433      0.577847      0.861935
H       0.150515      2.033217     -0.180558
H      -0.074595     -0.859193      0.936228
H      -1.574186      0.414839      1.581276
H      -2.042824      0.650645     -1.256285
H      -0.843893     -0.722823     -1.300574
