16
smiles: [C:1]([C@@:2]([C:3]([C:4](=[O:5])[H:15])([H:12])[H:13])([C:6]#[N:7])[H:11])([H:8])([H:9])[H:10].[H:14][H:16]
C       -2.15775000      -0.20034900      -0.05257700
C       -0.68379400      -0.47974900      -0.35665500
C        0.15564600       0.79878600      -0.36163600
C        1.52332700       0.63654300      -0.97428700
O        1.88295300      -0.33904100      -1.57053700
C       -0.14045600      -1.43375500       0.61709600
N        0.26368700      -2.15775800       1.40970900
H       -2.57523400       0.45738700      -0.81613900
H       -2.27039000       0.28210600       0.91953500
H       -2.73406400      -1.12484800      -0.04180200
H       -0.59273400      -0.95269700      -1.33773900
H       -0.35805400       1.57431800      -0.94229200
H        0.26585300       1.20751000       0.64734300
H        2.75121600       0.43248000       1.94076700
H        2.19580100       1.51035000      -0.85879000
H        2.38213200      -0.21398400       1.92459600
