11
Extracted from Q-Chem output
O      -0.145492      1.826405     -0.688671
C      -0.032417      0.617779     -0.032115
C      -1.024375     -0.552771     -0.111870
C       0.238194     -1.395141     -0.188196
C       1.085874     -0.366536     -0.147456
N      -0.167070      1.772239      0.785502
H      -1.641313     -0.546700     -1.011209
H      -1.652821     -0.686998      0.769290
H       0.382906     -2.465459     -0.252001
H       2.162905     -0.267496     -0.179111
H       0.771162      2.073556      1.054175
