17
smiles: [C:1]1([H:8])([H:9])[C:4]([H:12])([H:13])[C:5]([H:14])=[C:6]([H:15])[C:7]1([H:16])[H:17].[C:2](=[O:3])([H:10])[H:11]
C       -0.53637200       0.24392200       1.03793900
C       -0.67533600      -2.86883700      -1.57801600
O       -0.05795500      -1.84909800      -1.67271800
C        0.99834900       0.10804200       1.08939900
C        1.47317500       1.36273100       0.40497100
C        0.48925100       1.98703000      -0.22687300
C       -0.82446300       1.26545500      -0.07999200
H       -0.89457200       0.64253100       1.98941000
H       -1.03941300      -0.71025300       0.87890100
H       -0.47358500      -3.60311800      -0.77456100
H       -1.48103500      -3.13333600      -2.28960600
H        1.37484400       0.01367600       2.11061300
H        1.34995300      -0.77620700       0.54580700
H        2.50927100       1.67962300       0.40595600
H        0.60308800       2.88875400      -0.81650400
H       -1.09610100       0.77629200      -1.02234700
H       -1.64996900       1.93586400       0.17005100
