17
Extracted from Q-Chem output
C      -1.422053     -0.075896      0.713752
C      -0.228580     -1.736482     -1.264515
O       0.080062     -0.902133     -2.077739
C       1.492946     -0.244172      1.181560
C       1.512690      0.699400      0.194140
C       0.423824      1.327124     -0.396596
C      -0.974528      0.999205     -0.147543
H      -1.089152     -0.147841      1.734959
H      -2.415642     -0.470760      0.536860
H       0.520247     -2.260526     -0.646048
H      -1.275620     -2.057910     -1.120542
H       0.688445     -0.373181      1.878792
H       2.393609     -0.812731      1.383759
H       2.470954      0.905899     -0.274918
H       0.600227      2.128623     -1.103203
H      -1.562542      1.111469     -1.059037
H      -1.214887      1.909912      0.466320
