10
smiles: [C:6](#[N:7])[H:10].[N:4]#[N:5].[O:1]([C:2]#[C:3][H:9])[H:8]
O        2.23607200      -0.58398600       0.24364000
C        1.85768400       0.64875400       0.04322100
C        1.57015500       1.79494200      -0.13449300
N       -2.11428800       2.02514600      -0.05163700
N       -2.40558800       0.97665800      -0.04404500
C       -1.33835900      -2.16988100       0.00644700
N       -0.21274000      -1.99230600       0.10314000
H        1.47632800      -1.17296700       0.21068600
H        1.31295700       2.81354600      -0.29386400
H       -2.38988100      -2.33600000      -0.08396500
