19
Extracted from Q-Chem output
C       1.872204     -0.739623     -0.473327
C       0.497804     -0.229360     -0.312247
O       0.725841      0.129567      1.929533
C       0.037813      1.117237     -0.731858
C      -1.082917      1.119845      0.290411
C      -1.851991     -0.144494     -0.019713
C      -0.678348     -1.124743     -0.175812
H       2.616124      0.020344     -0.245563
H       1.969054     -0.977676     -1.543008
H       2.058800     -1.640794      0.105665
H       1.370272      0.759340      2.265617
H       0.804670      1.882027     -0.589842
H      -0.236758      1.108433     -1.811657
H      -0.112915      0.676039      1.514353
H      -1.614643      2.056018      0.445887
H      -2.439926     -0.105728     -0.953183
H      -2.529815     -0.455747      0.776521
H      -0.711012     -1.763157     -1.072365
H      -0.560372     -1.791630      0.678679
