11
smiles: [C:1]1([H:7])([H:8])[C:2]([H:9])=[C:6]1[H:11].[O:3]=[C:4]=[N:5][H:10]
C       -1.51211800       0.40649600       0.19669700
C       -0.98830000      -0.79755200      -0.52926900
O        2.35696900      -0.35291800      -1.60534700
C        2.19926700       0.26118300      -0.63421000
N        2.16417200       0.94870000       0.35796500
C       -0.86108400      -0.82758800       0.74870400
H       -0.95297000       1.34072300       0.16392400
H       -2.58721000       0.54286900       0.30726800
H       -0.84666800      -1.26227100      -1.48865000
H        1.38721900       1.02464800       0.98778300
H       -0.53414900      -1.33459500       1.63883100
