12
Extracted from Q-Chem output
O      -2.184854      0.431405      0.555826
C      -1.552364     -0.366369     -0.345935
C       0.090222     -0.039548     -0.317075
N      -0.065306      0.542574     -1.380152
O       2.414443      0.890711     -0.749651
C       2.258728      0.236614      0.273203
C       1.010822     -0.349087      0.646488
H      -2.431549      1.263678      0.143464
H      -1.482671     -1.389668      0.025173
H      -1.973498     -0.371421     -1.348428
H       3.106432      0.066119      0.958190
H       0.809594     -0.915008      1.538901
