14
Extracted from Q-Chem output
O      -0.113308     -1.273398      1.156669
C      -0.186917     -1.059518     -0.121692
C      -0.897143      0.155194     -0.506960
C       0.041428      1.252582     -0.154962
C       1.047198      0.145902     -0.482091
O       2.059436     -0.080585      0.415356
H      -1.465549     -0.558203      1.357705
H      -0.276043     -1.919554     -0.796223
H      -1.371105      0.196734     -1.490937
H      -1.972980     -0.063716      0.872433
H       0.014120      2.131990     -0.790549
H       0.088253      1.513925      0.898201
H       1.404102      0.125100     -1.506658
H       1.635118     -0.531859      1.169692
