12
Extracted from Q-Chem output
C      -1.358435      0.309326      1.285628
N      -0.223199      0.635118      0.427015
C      -0.538941      0.657507     -0.972760
C       0.184315     -0.601965     -0.300866
C       1.511541     -0.594044     -0.567513
N       2.684807     -0.585305     -0.761630
H      -1.011990     -0.224571      2.172530
H      -2.120865     -0.275557      0.754556
H      -1.807130      1.250985      1.601058
H       0.223158      1.286456     -1.466663
H       3.142517     -0.343317     -1.629901
H      -0.350482     -1.540257     -0.240485
