12
Extracted from Q-Chem output
C      -1.526566      0.234783      0.986600
N      -0.197888      0.702129      0.610988
C       0.246848      0.536087     -0.786040
C       0.662078     -0.432875      0.265446
C       1.985760     -0.499783     -0.273427
N       2.401117     -0.635443     -1.380787
H      -1.527716     -0.035664      2.043459
H      -1.868902     -0.620348      0.389567
H      -2.222177      1.059746      0.839015
H       0.936950      1.362267     -0.933384
H       1.139587     -0.267603     -1.826560
H       0.212202     -1.418688      0.306108
