15
Extracted from Q-Chem output
O       2.045215      0.251474      1.220439
C       1.402580      1.049934      0.446603
C       0.591752      0.140415     -0.886836
C      -0.321063     -0.793523     -0.358424
O       0.144892     -1.155981      1.681946
C      -1.680664     -0.433489     -0.154073
C      -2.825777     -0.117087      0.010022
H       1.045134     -0.572426      1.656166
H       2.003624      1.731868     -0.171236
H       0.512311      1.564560      0.853217
H       1.435132     -0.296074     -1.409595
H       0.122804      0.977784     -1.394960
H      -0.113794     -1.852457     -0.399887
H      -0.516298     -0.651447      2.161516
H      -3.845848      0.156451      0.148743
