12
Extracted from Q-Chem output
O       0.745970     -0.051610      1.268257
C       0.970281     -0.735531      0.130403
C       1.275244     -1.948906     -0.265835
C      -1.799082      0.978307      0.335686
C      -0.713422      1.122869     -0.404681
C       0.635065      0.654528     -0.007569
H       1.424300     -2.743548      0.451998
H       1.377971     -2.158157     -1.320038
H      -2.758732      1.345974     -0.003566
H      -1.756901      0.488474      1.301193
H      -0.757506      1.623104     -1.367494
H       1.449314      1.355993     -0.174616
