12
Extracted from Q-Chem output
O       1.670075     -0.062471      1.527448
C       1.097643     -0.439582      0.466489
C       0.809749     -1.668630     -0.056689
C      -1.634989      0.493631      0.076041
C      -0.604684      1.171353     -0.464539
C       0.733967      0.781622     -0.216863
H       1.198418     -2.572729      0.393467
H       0.183010     -1.741742     -0.934165
H      -2.661398      0.760626     -0.145375
H      -1.459851     -0.308202      0.782729
H      -0.788271      2.046884     -1.078247
H       1.548833      1.470738     -0.406561
