11
smiles: [C:1]([N:2]=[N+:6]=[N-:5])([H:7])([H:8])[H:9].[C:3](#[C:4][H:11])[H:10]
C       -1.68808600      -0.23424200       0.00965200
N       -0.90150400       0.06211000      -1.18905700
C        1.54651400       1.30082500       0.83506800
C        2.19747200       0.30037800       0.88422600
N        0.82052800      -1.41903900      -1.76013300
N       -0.01649000      -0.74262600      -1.44027200
H       -1.06547700      -0.24318800       0.90840700
H       -2.42645200       0.55687500       0.10555000
H       -2.20791500      -1.19225300      -0.07588700
H        0.96684300       2.19303900       0.79248400
H        2.77711300      -0.59186000       0.92685900
