18
Extracted from Q-Chem output
C       3.034049      0.673074     -0.237731
O       1.688667      0.946292      0.045014
C       0.829908     -0.150544     -0.194558
C      -0.186255     -0.342780      0.939529
N      -1.188574     -0.681416     -0.140321
C      -2.628359     -0.516147      0.058665
C      -0.393324      0.235937     -1.041142
H       3.611606      1.565448      0.018561
H       3.186465      0.442140     -1.298975
H       3.402908     -0.177241      0.346912
H      -0.950419     -1.624107     -0.440934
H      -0.075629     -1.122523      1.696897
H      -0.548851      0.592170      1.403687
H      -2.831719      0.502877      0.377964
H      -2.971680     -1.212331      0.823796
H      -3.150187     -0.712715     -0.877872
H      -0.783742      1.253323     -0.858664
H      -0.475440     -0.014974     -2.101549
