14
smiles: [C:1]([C:2](=[C:3]([H:11])[H:12])[C:5]#[C:6][H:14])([H:7])([H:8])[H:9].[O:4]([H:10])[H:13]
C       -0.69593000      -1.34976400       0.35317300
C       -0.19770800      -0.01304200       0.82914500
C       -0.90332000       0.79229200       1.61949500
O        0.01045900       0.30648600      -2.67554900
C        1.11159600       0.36819700       0.37869300
C        2.20656100       0.65172500      -0.01987900
H       -0.01846100      -2.14521700       0.66996700
H       -0.73760400      -1.37639700      -0.73766700
H       -1.69035800      -1.55593100       0.74799500
H       -0.54689000       1.07282100      -2.53450800
H       -1.89167100       0.50724300       1.95935100
H       -0.51392800       1.74815200       1.94452300
H        0.70072800       0.36830000      -2.01422000
H        3.17755600       0.91543800      -0.36674500
