17
Extracted from Q-Chem output
C       1.851044     -0.473135      0.109149
C       0.957992     -0.828751      1.256833
C      -0.499462      2.075989     -1.545174
C      -0.983726      1.175536     -0.704506
O      -0.952234     -0.151318     -0.968521
C      -1.320383     -0.998285      0.105849
C      -0.351073     -1.052343      1.256003
H       2.733627     -1.117212      0.114368
H       2.208795      0.555272      0.209443
H       1.354985     -0.564203     -0.853238
H       1.458146     -0.912286      2.218666
H      -0.574019      3.126508     -1.306152
H      -0.038410      1.782160     -2.479176
H      -1.442563      1.453493      0.242042
H      -1.441357     -1.989019     -0.338844
H      -2.305189     -0.695388      0.483277
H      -0.815341     -1.323189      2.200593
