15
Extracted from Q-Chem output
C       0.915772     -0.857077      0.832458
C       1.089752      0.762011     -1.694708
N       0.444400      1.083589     -0.618198
C      -0.174375      0.046764      0.256113
C      -1.205682     -0.753743     -0.539012
C      -0.848556      0.767657      1.351312
N      -1.368757      1.341745      2.197070
H       0.474168     -1.624364      1.468011
H       1.439277     -1.326182     -0.000008
H       1.628320     -0.278701      1.420671
H       1.447237      1.702432     -2.143887
H       0.315028      2.035639     -0.284640
H      -0.697236     -1.221876     -1.381025
H      -1.654788     -1.520503      0.091901
H      -1.993330     -0.102722     -0.918348
