15
Extracted from Q-Chem output
C       1.147899     -0.769292      0.370609
C       1.366999      0.707577     -0.805847
N       0.026814      0.924800     -1.325642
C      -0.309468      0.234802     -0.117083
C      -1.342764     -0.857664     -0.311188
C      -0.604234      1.097479      1.019929
N      -0.893118      1.763063      1.910559
H       0.574684     -1.109473      1.244501
H       1.290531     -1.601769     -0.307760
H       2.097305     -0.440935      0.785676
H       1.608698      1.518164     -0.084961
H      -0.251860      1.897190     -1.246204
H      -1.028784     -1.524290     -1.111518
H      -1.503040     -1.425677      0.605639
H      -2.280435     -0.384605     -0.607587
