17
smiles: [C:1]([C@@:2]1([H:11])[C-:3]([H:13])[O+:4]=[C:5]([H:14])[O:7]1)([H:8])([H:9])[H:10].[C:6]([H:12])([H:15])([H:16])[H:17]
C        2.02674900       0.45549900      -0.65803100
C        1.31176600      -0.72144600      -0.05261000
C        0.66437400      -0.47773300       1.29387100
O       -0.53917100      -1.32405300       1.16744800
C       -0.78473100      -1.48224000      -0.04600900
C       -2.19796500       1.53773500       0.01421400
O        0.09692900      -1.03914200      -0.87883900
H        2.38427400       0.23543100      -1.66553400
H        2.88814900       0.69297400      -0.03057400
H        1.36970700       1.32420300      -0.67110000
H        1.93694800      -1.62991800      -0.15295100
H       -1.33490300       1.24714100       0.61133000
H        1.21371300      -0.88748400       2.13898300
H       -1.72624900      -1.88110000      -0.39949500
H       -2.33073300       2.61719900       0.07032900
H       -2.03766700       1.24541100      -1.02243100
H       -3.08854300       1.04297600       0.39864900
