17
Extracted from Q-Chem output
C       1.825712      0.573088     -0.672856
C       1.116852     -0.612408     -0.066706
C       0.353119     -0.325741      1.212423
O      -0.727542     -1.261752      1.125284
C      -1.042251     -1.189644     -0.119796
C      -1.725282      1.034704      0.014202
O      -0.012501     -1.028336     -0.928066
H       2.260014      0.315970     -1.639444
H       2.632429      0.885565     -0.006641
H       1.136466      1.407198     -0.800437
H       1.788964     -1.481708     -0.032524
H      -0.611110      0.648422      0.687242
H       0.871096     -0.433385      2.158687
H      -1.942896     -1.647813     -0.501999
H      -1.468285      2.085835      0.187595
H      -1.893974      0.938215     -1.059624
H      -2.657146      0.837811      0.547117
