19
Extracted from Q-Chem output
C       2.395041      0.984490      0.643687
C       1.840461      0.793415     -0.758486
O       0.623200      0.083288     -0.789209
C      -1.863602     -2.473206      0.098461
C      -1.714443     -1.205195      0.444128
C      -1.734342     -0.046117     -0.504561
C      -0.499379      0.830657     -0.396550
H       3.380086      1.453264      0.596200
H       1.755251      1.623810      1.254262
H       2.494180      0.020004      1.144080
H       2.537123      0.202128     -1.355810
H       1.720639      1.765500     -1.258988
H      -2.003746     -2.762969     -0.937700
H      -1.845397     -3.267976      0.834119
H      -1.563617     -0.957193      1.493527
H      -1.833928     -0.403781     -1.532291
H      -2.605494      0.583692     -0.292223
H      -0.607058      1.714281     -1.042944
H      -0.393356      1.191834      0.636564
