14
Extracted from Q-Chem output
O       1.840310     -1.614393      1.266863
C       0.695569     -1.319081      1.479779
C       0.782083      0.850827      0.018437
C      -0.475123      0.933820     -0.872275
C      -1.019297     -0.335163     -0.182722
C       0.014850     -0.095022      0.955477
H       1.604530      0.323487     -0.465579
H       0.047629     -1.992285      2.082460
H       1.163460      1.776610      0.446579
H      -0.331284      0.888770     -1.951168
H      -1.083187      1.808378     -0.637049
H      -2.073151     -0.357024      0.091793
H      -0.782700     -1.237364     -0.749817
H      -0.458403      0.426550      1.792684
