14
Extracted from Q-Chem output
O       1.408810     -1.570614      0.157745
C       0.841617     -0.818565      1.106934
C       0.619731      0.733773      0.478984
C      -0.233328      0.737865     -0.813449
C      -1.204185     -0.318414     -0.254559
C      -0.490362     -0.264775      1.087478
H       1.503908     -0.251207      0.018783
H       1.340794     -0.721809      2.078940
H       0.963567      1.619101      0.996648
H       0.294992      0.484172     -1.732261
H      -0.716251      1.705518     -0.939469
H      -2.238967      0.013493     -0.212059
H      -1.147710     -1.296694     -0.728579
H      -0.983217     -0.025472      2.021250
