13
Extracted from Q-Chem output
C       1.977554     -0.357156     -0.257803
C       0.933169     -0.669491      0.775728
O       1.059084     -1.513161      1.617207
C      -0.364567      0.172794      0.702558
O      -0.090753      1.483493      0.288144
C      -1.361340     -0.629777     -0.076032
O      -1.859460      0.152255     -1.003842
H       1.532050     -0.368111     -1.255706
H       2.364384      0.649801     -0.097155
H       2.780752     -1.086922     -0.191208
H      -0.769577      0.153757      1.725843
H      -0.709635      1.720624     -0.408602
H      -2.512365     -0.342430     -1.510103
