13
Extracted from Q-Chem output
C       2.002281     -0.319465     -0.226518
C       0.867267     -0.716293      0.670208
O       0.867415     -1.692522      1.366409
C      -0.369638      0.212002      0.664658
O      -0.079563      1.501014      0.232298
C      -1.439470     -0.446780     -0.161908
O      -1.914957      0.303407     -1.112166
H       1.638767     -0.159183     -1.244187
H       2.418594      0.631915      0.107590
H       2.763462     -1.095571     -0.209476
H      -0.749300      0.201663      1.695484
H      -0.681676      1.715058     -0.495079
H      -2.343886     -0.769569     -0.978285
