12
Extracted from Q-Chem output
C      -2.310786     -0.000825      0.275002
C      -1.086741      0.863861      0.212152
C       0.136528      0.421835      0.115890
C       1.342607     -0.019453      0.045751
C       2.612125     -0.474981      0.529529
O       2.282608     -0.364268     -0.880892
H      -2.990000      0.237186     -0.547211
H      -2.051574     -1.057012      0.218325
H      -2.857402      0.176247      1.204733
H      -1.246799      1.940225      0.247208
H       2.720243     -1.492792      0.890821
H       3.346378      0.243988      0.878897
