10
Extracted from Q-Chem output
O       2.204256     -0.664908      0.124885
C       0.951716     -0.239692      0.051367
C       0.776589      1.201250     -0.026396
N      -0.514554      1.448880     -0.091773
N      -1.584879      0.613832     -0.095485
C      -1.257520     -0.636220     -0.021643
N      -0.002012     -1.129049      0.054886
H       2.182445     -1.629465      0.170657
H      -0.811824      2.412932     -0.150946
H      -2.072879     -1.349991     -0.020640
