10
Extracted from Q-Chem output
O       2.165200     -0.518317      0.177668
C       0.893923     -0.184506      0.025009
C       0.554152      1.198403     -0.143000
N      -0.752537      1.426345     -0.208520
N      -1.748966      0.517536     -0.099658
C      -1.306639     -0.706458     -0.043779
N      -0.018068     -1.114873      0.007868
H       2.207419     -1.479056      0.269840
H      -0.064386      2.376208      0.028186
H      -2.058762     -1.487711     -0.018708
