10
smiles: [C:4]([C:5]#[N:6])([H:7])([H:9])[H:10].[N:1](=[C:2]=[O:3])[H:8]
N       -2.32680300       0.56723300      -1.48197500
C       -2.09188000      -0.17655600      -0.56009500
O       -1.99589400      -0.92340500       0.32205400
C        1.50577800      -0.40071700       0.97434900
C        1.08935000       0.41685800      -0.15614200
N        0.76054000       1.06117300      -1.04566900
H        1.94725000       0.22945100       1.74559900
H       -1.65708600       1.15441100      -1.94325200
H        2.24338300      -1.13449400       0.65145900
H        0.64542100      -0.92202100       1.39234800
