15
Extracted from Q-Chem output
O       2.822993     -0.468143     -0.556596
C       1.638596     -0.353840     -0.370234
N       0.742144     -1.274231      0.022094
C      -0.643618     -1.194758     -0.452330
C      -1.165864     -0.280617      0.654783
C      -0.142478      1.348399     -0.048672
N       1.148254      1.056808     -0.306185
H       0.053328     -0.250164      0.971391
H      -0.760308     -0.773372     -1.456738
H      -1.087065     -2.189594     -0.466581
H      -1.300829     -0.901683      1.550398
H      -2.054008      0.349730      0.588519
H      -0.332702      2.175762      0.628093
H      -0.834568      1.263244     -0.876198
H       1.834468      1.575764      0.223911
