19
smiles: [C:1](/[C:2](=[C:3](\[C:7](=[C:6]([H:17])[H:18])[H:19])[H:12])[H:11])([H:8])([H:9])[H:10].[C:4](=[C:5]([H:15])[H:16])([H:13])[H:14]
C       -1.85953400      -0.24181500       0.54816300
C       -1.56163400      -0.35493100      -0.91315000
C       -0.63918200      -1.11832200      -1.49789400
C        1.07779300       2.11417300      -0.31845000
C        1.64011800       2.25738600       0.86926500
C        1.03674300      -1.73776700       0.24356300
C        0.32815400      -2.01055500      -0.84635700
H       -2.93843800      -0.21228100       0.71396100
H       -1.44095000      -1.07321200       1.11530500
H       -1.45060600       0.68477500       0.96185000
H       -2.19101500       0.24232600      -1.56749500
H       -0.60660500      -1.11869700      -2.58428200
H        1.12019700       1.17539100      -0.85885000
H        0.55111200       2.93008200      -0.80029900
H        2.16670200       1.44148000       1.35121700
H        1.59765700       3.19618300       1.40964300
H        0.96362700      -0.78146500       0.74807500
H        1.73610300      -2.45767200       0.65090600
H        0.48695400      -2.96672700      -1.34005000
