11
Extracted from Q-Chem output
C      -1.691049     -0.073785      0.271398
N      -0.263560     -0.001648      0.061823
N       0.452756      1.057085      0.325629
C       1.673839      0.782232     -0.092475
C       1.732928     -0.474736     -0.764321
N       0.422641     -0.928356     -0.645663
H      -1.930479      0.405005      1.217835
H      -1.973356     -1.123508      0.301538
H      -2.226033      0.423895     -0.538253
H       2.466504      1.498416      0.052591
H       1.247010     -1.616047     -0.177686
