14
Extracted from Q-Chem output
O       1.812743     -1.290711     -0.419372
C       1.233474     -0.054489     -0.749156
C       0.380215      0.470535      0.394736
C      -1.027376      0.996281      0.043458
C      -0.672315     -0.433939      0.863476
O      -1.075373     -1.511892      0.165684
H       1.075893     -1.906379     -0.313087
H       0.626446     -0.138591     -1.657787
H       2.047129      0.641010     -0.960072
H       0.904006      1.031230      1.160398
H      -1.187468      1.028559     -1.032395
H      -1.463946      1.803062      0.614475
H      -0.985006     -0.326597      1.906689
H      -1.650496     -0.286335     -0.028933
