19
Extracted from Q-Chem output
C       2.881689      0.245232      0.248996
C       1.569702      0.745784     -0.250181
O       0.474384      0.608546      0.569766
C       0.039004     -0.611485      0.017594
C      -1.843228     -0.742815      1.207822
C      -1.532539     -0.631946     -0.184471
C      -2.012897      0.587801     -0.946756
H       2.815346     -0.777349      0.626290
H       3.247797      0.871166      1.074775
H       3.627060      0.274439     -0.546904
H       0.656517     -0.546737     -0.999851
H       1.562267      1.662745     -0.840308
H       0.408692     -1.473017      0.583309
H      -1.911851      0.141594      1.827020
H      -1.893516     -1.709733      1.689057
H      -1.722495     -1.554655     -0.737314
H      -1.534531      0.657934     -1.925829
H      -3.091866      0.530212     -1.093635
H      -1.791007      1.498344     -0.390014
