14
Extracted from Q-Chem output
C      -2.482152      0.314477      0.138812
O      -1.573857     -0.747984      0.247295
C      -0.249527     -0.337419      0.095277
C       0.657372     -1.523062      0.210155
C       2.439558      0.094638     -0.140510
O       1.916391     -1.233703      0.086959
H      -2.307556      1.076953      0.910492
H      -2.422598      0.799570     -0.845393
H      -3.481430     -0.097855      0.268680
H       0.016463      0.415640      0.861662
H      -0.103108      0.148869     -0.888458
H       2.054548      0.502151     -1.075241
H       2.184645      0.753498      0.689533
H       3.517963     -0.020416     -0.203718
