14
Extracted from Q-Chem output
C      -2.338986      0.350602     -0.140260
O      -1.154696     -0.363399     -0.381593
C      -0.172707     -0.129261      0.582942
C       0.975537     -1.100898      0.399026
C       2.286700     -0.117279     -0.373497
O       2.131347     -0.509538      0.961218
H      -2.789328      0.062336      0.818207
H      -2.162737      1.434485     -0.131133
H      -3.033993      0.111784     -0.943772
H      -0.532306     -0.378040      1.597443
H       0.126093      0.933066      0.604970
H       1.485865     -0.838771     -0.919381
H       2.029953      0.919053     -0.576644
H       3.216255     -0.481992     -0.805571
