10
Extracted from Q-Chem output
C      -0.904265     -0.856696     -0.489774
C      -0.814219      0.461248      0.272519
N       0.585857      0.348579      0.731155
C       1.250969     -0.407289     -0.131474
O       0.502872     -1.051971     -0.910862
H       1.049150      1.032661      1.302003
H      -1.468357     -0.806244     -1.419179
H      -0.935177      1.407868     -0.297881
H      -1.489660      0.492530      1.127802
H       2.322430     -0.554816     -0.130546
