15
smiles: [C:1]([C:2]1=[N:4][C:3]1([H:12])[H:13])([H:8])([H:9])[H:10].[C:5](=[C:6]=[N:7][H:11])([H:14])[H:15]
C       -1.24061600      -1.09056400       0.85868600
C       -1.06669000       0.34980300       0.60960800
C       -1.41784200       1.55412100      -0.11122500
N       -0.40357000       1.32828900       1.00143900
C        2.50439200      -0.34842300       0.33299300
C        1.82795700      -0.56975800      -0.76075800
N        1.14044000      -0.84659000      -1.72679400
H       -2.27798600      -1.29818400       1.12641800
H       -0.58128700      -1.42170800       1.66042300
H       -1.01979000      -1.65199400      -0.05094300
H        1.35984500      -0.34718900      -2.58358300
H       -1.01729100       1.74422600      -1.10300000
H       -2.30848800       2.11832500       0.15057300
H        3.39058800      -0.92784200       0.54709100
H        2.18442100       0.41858300       1.02296700
