16
Extracted from Q-Chem output
C      -0.498025      0.154016     -1.450907
C      -0.402855     -0.068642      0.045295
C      -0.332868     -1.522964      0.466411
C       0.390169      1.396588      1.264341
C       1.843054      1.392782      1.135613
C       1.399288      0.450655      0.343688
H      -1.438641     -0.260423     -1.824908
H       0.318084     -0.335946     -1.985577
H      -0.475615      1.215624     -1.702508
H      -1.292691      0.362270      0.497683
H      -0.198825     -1.625007      1.544588
H      -1.263198     -2.029124      0.193326
H       0.489006     -2.046843     -0.025496
H      -0.188826      2.184466      0.784428
H      -0.070967      0.973466      2.155599
H       1.765071     -0.291829     -0.347995
