13
Extracted from Q-Chem output
O       2.343716     -1.191870     -0.047200
N       1.737894      0.051842      0.203129
C       0.363359      0.001427      0.038532
C      -0.504051     -0.806446     -0.573184
C      -1.688555      0.076846     -0.242535
C      -0.662891      1.015967      0.467449
H       2.893676     -1.028415     -0.817021
H      -0.404861     -1.741479     -1.104694
H       2.004241      0.333794      1.138315
H      -2.196284      0.537289     -1.093441
H      -2.439381     -0.354641      0.423520
H      -0.559424      2.006163      0.020012
H      -0.804573      1.120969      1.545691
