14
Extracted from Q-Chem output
O      -0.116401      2.061102      1.205379
C      -0.109546      0.957386      0.662279
C      -1.254243      0.140640      0.012565
C      -0.444823     -1.137096     -0.312336
C       0.939516     -0.620320     -0.063814
C       1.086051      0.685457     -0.579743
H      -2.075766     -0.032501      0.708334
H      -1.647315      0.661160     -0.862807
H      -0.699564     -1.987171      0.318063
H      -0.558183     -1.433663     -1.358939
H       1.734634     -1.203801      0.388269
H       0.293009      0.018763      1.366732
H       1.998774      1.228595     -0.369185
H       0.612028      0.934110     -1.523280
