11
Extracted from Q-Chem output
C       1.526831     -0.003608      0.123406
C       0.425548      0.433024     -0.586589
N      -0.446041      1.320019     -0.018909
C      -1.512197      0.576522      0.075453
C      -1.380784     -0.755768     -0.552500
O      -0.176164     -0.548825     -1.252462
H       0.370816     -0.833854      0.792472
H       1.980360      0.649964      0.855129
H       2.102801     -0.834931     -0.260958
H      -2.385834      0.903416      0.626481
H      -0.584022     -1.158696      0.634301
