10
smiles: [N:3](=[C:4]([C:5](=[N:6]/[H:10])/[H:9])\[H:8])\[H:7].[O+:1]#[C-:2]
O        3.29107900       0.35780600      -0.40873900
C        2.54151300       0.07068600      -1.19474400
N        0.14588400      -1.39729400       0.52484300
C       -0.86079900      -0.81320100       0.03806400
C       -1.03145300       0.66331400       0.13722600
N       -0.04510200       1.44841300       0.09041100
H        0.09373000      -2.40128000       0.36222700
H       -1.68362500      -1.33830600      -0.46296800
H       -2.07151100       1.00116000       0.22715200
H       -0.35051700       2.41631100       0.17399200
