11
Extracted from Q-Chem output
C      -1.244784      0.457197      0.394509
N      -0.030704     -1.294414     -0.855869
C      -0.030396      0.109621     -0.459002
C       1.294236      0.200580      0.203959
N       1.904723     -0.912414      0.182691
N       1.015979     -1.837097     -0.506657
H      -2.158176      0.261929     -0.165110
H      -1.258652     -0.144547      1.303531
H      -1.223764      1.510978      0.672474
H      -0.041462      0.700222     -1.382974
H       1.729284      1.080706      0.659805
