11
Extracted from Q-Chem output
C      -1.304021      0.167072      0.306301
N      -0.223629     -0.813707     -0.853154
C       0.354599      0.440303     -0.645635
C       1.460426      0.221786      0.168558
N       1.499026     -1.077872      0.445728
N       0.482807     -1.681149     -0.139929
H      -2.183210     -0.306793     -0.109875
H      -0.993100     -0.253033      1.254880
H      -1.436649      1.244597      0.353447
H       0.105846      1.276663     -1.278429
H       2.194190      0.914894      0.545464
