17
Extracted from Q-Chem output
C       1.822482      0.516735      0.506353
C       0.955750     -0.726182      0.372777
C      -0.293230      0.074676     -0.962957
C      -1.410656     -0.889764     -1.070980
C      -0.851529     -1.159481      0.283768
C      -0.707067      1.337939     -0.457797
C      -1.043135      2.453887     -0.148577
H       2.064379      0.942990     -0.464985
H       2.742709      0.225719      1.021356
H       1.335441      1.284898      1.106243
H       1.412885     -1.453458     -0.292166
H       0.934766     -1.156738      1.381899
H      -2.411110     -0.469320     -1.061307
H      -1.285604     -1.690094     -1.795373
H      -0.589920     -2.194834      0.454530
H      -1.362635     -0.680297      1.108549
H      -1.316986      3.449966      0.105460
