12
Extracted from Q-Chem output
C       2.276796     -1.279581     -0.405228
C       1.338890     -0.629475     -0.042793
C       0.222342      0.176680      0.429188
C      -1.089118     -0.543892      0.300975
O      -1.361737      0.030828     -0.850187
C      -0.401427      0.998567     -0.704321
H       3.107268     -1.859247     -0.732125
H       0.446077      0.668792      1.373263
H      -1.582953     -1.434530      0.651660
H      -1.814840      1.125639      1.166874
H      -1.501211      1.680661      0.682047
H       0.056567      1.370796     -1.611757
