10
Extracted from Q-Chem output
O       2.496282      0.108055     -0.703357
C       0.877196     -0.196484     -0.779109
N       1.639247     -1.188288     -0.904692
N      -1.580196     -1.059165      0.253712
C      -1.379105      0.166586     -0.022338
C      -0.130335      0.653592     -0.576716
H       2.718700      0.094513      0.240785
H      -2.503415     -1.194079      0.653012
H      -2.130880      0.945938      0.143589
H      -0.001801      1.681679     -0.881212
