15
Extracted from Q-Chem output
C      -2.912805     -0.133202      0.270893
C      -1.461734     -0.243743     -0.158563
C      -0.489342      0.319576      0.852330
O      -0.832111      0.812176      1.898512
C       0.916893      0.231170      0.479262
C       2.069998      0.149802      0.155401
C       3.473466      0.061545     -0.216188
H      -3.085830     -0.669827      1.203831
H      -3.570449     -0.548369     -0.493739
H      -3.191851      0.907187      0.438504
H      -1.278522      0.275314     -1.105432
H      -1.171086     -1.283742     -0.341416
H       3.917175      1.057251     -0.259164
H       4.024487     -0.521519      0.523104
H       3.591711     -0.413618     -1.190509
