17
Extracted from Q-Chem output
C      -2.164129     -0.236940      0.387068
C      -0.938803      0.014713     -0.463931
C       0.064949      1.098950     -0.010679
C       1.211432      0.152701     -0.466332
C       2.412553      0.114228      0.423295
O       2.706487     -0.800129      1.144886
C       0.213752     -1.013592     -0.438999
H      -1.882071     -0.438524      1.423700
H      -2.833006      0.627162      0.383183
H      -2.727534     -1.098274      0.021114
H      -1.233631      0.209385     -1.499050
H       0.004211      2.083425     -0.473513
H       0.057070      1.214662      1.076255
H       1.534439      0.411659     -1.478953
H       3.035489      1.035007      0.406445
H       0.270059     -1.539088      0.516370
H       0.267613     -1.742965     -1.246262
