16
Extracted from Q-Chem output
C      -2.012011     -0.118119     -1.033060
C      -0.614974      0.294936     -0.573383
O      -0.651855      1.523876      0.115391
C      -0.077145     -0.795859      0.340821
C       1.592933     -0.068081      0.768291
O       1.595623     -1.352572      0.602647
N       2.492346      0.590472      0.026140
H      -2.676781     -0.238460     -0.175343
H      -1.986334     -1.053454     -1.594171
H      -2.435515      0.647779     -1.687009
H       0.044059      0.364189     -1.449285
H      -1.091089      2.167644     -0.442861
H      -0.518459     -0.780206      1.328411
H      -0.236190     -1.746956     -0.173839
H       3.143507      0.084939     -0.563482
H       2.586674      1.583496      0.127798
