15
Extracted from Q-Chem output
C      -1.932631     -0.743075      0.065467
C      -0.909705     -0.265998     -0.956387
N      -0.167380      0.874598     -0.465059
C       0.952824      0.746950      0.095192
O       1.583308      1.856563      0.544487
C       1.767474     -0.475571      0.386126
H      -2.547290     -1.546127     -0.345923
H      -2.588034      0.078287      0.359082
H      -1.439736     -1.117376      0.965670
H      -0.260199     -1.100151     -1.248737
H      -1.428500      0.053253     -1.863173
H       1.001587      2.595484      0.326840
H       1.288162     -1.384274      0.032919
H       1.924029     -0.551406      1.462839
H       2.748258     -0.380895     -0.081364
