15
Extracted from Q-Chem output
C      -1.979805     -0.648921      0.085248
C      -0.915883     -0.205687     -0.909862
N      -0.055075      0.825291     -0.383106
C       1.118117      0.717534      0.167806
O       1.491348      1.899092      0.514053
C       1.951103     -0.488733      0.407363
H      -2.634631     -1.401753     -0.358411
H      -2.592570      0.198660      0.395849
H      -1.521085     -1.077827      0.978452
H      -0.314786     -1.067156     -1.222338
H      -1.391080      0.182790     -1.813296
H       0.316426      2.048333     -0.025215
H       1.497627     -1.388809     -0.004380
H       2.087436     -0.613830      1.481840
H       2.935024     -0.338722     -0.036023
