14
Extracted from Q-Chem output
C      -1.438177      0.326207      0.085364
C      -0.269074      0.513143     -0.834773
C       1.003268      1.014166     -0.176008
C       1.414199      0.105255      0.926652
C       0.560982     -1.101596      0.763459
C      -0.550688     -0.838592     -0.236721
H      -1.385036      0.755942      1.080878
H      -2.427481      0.339240     -0.352408
H      -0.458334      0.719386     -1.880276
H       0.988443      2.057181      0.155712
H       1.874149      0.964720     -0.851528
H       1.286110     -1.849589      0.400434
H       0.242607     -1.495063      1.733956
H      -0.950134     -1.649475     -0.831839
