14
Extracted from Q-Chem output
C      -1.456159      0.404574      0.054906
C      -0.260676      0.463967     -0.839278
C       1.043876      0.912337     -0.186675
C       1.365347     -0.026587      0.966725
C       0.416469     -1.060050      0.845545
C      -0.644523     -0.840627     -0.185637
H      -1.397546      0.869291      1.032752
H      -2.433111      0.447738     -0.408095
H      -0.421202      0.615394     -1.898835
H       0.976650      1.922449      0.229011
H       1.880304      0.944602     -0.889703
H       1.558978     -1.256918      0.408687
H       0.345604     -1.863709      1.575278
H      -1.083176     -1.671535     -0.721780
