9
Extracted from Q-Chem output
O       2.297494      1.121586      0.657551
C       1.341971      0.501361      0.230365
C       0.028219      0.603111      0.768822
C      -1.164283     -0.872161     -0.676099
O      -1.011244     -0.068770      0.297489
H       1.475231     -0.198673     -0.621539
H      -0.220700      1.217312      1.618674
H      -0.344424     -1.129742     -1.332243
H      -2.163106     -1.263513     -0.790490
