12
Extracted from Q-Chem output
C       1.253363      0.128821      0.263113
C       1.179408     -1.142827      1.085624
O       1.199632     -1.178098      2.283676
C      -2.201534      0.758341     -0.675865
O      -1.040876      0.580500     -0.138821
C       0.097348      0.256648     -0.664258
H       2.168794      0.085871     -0.334660
H       1.335810      0.976827      0.948134
H       1.072728     -2.074633      0.490028
H      -2.325529      0.618744     -1.741507
H      -2.983760      1.038153      0.007236
H       0.135266      0.083468     -1.732787
