11
Extracted from Q-Chem output
O      -2.095096     -0.385982     -0.663618
C      -0.985465     -0.078385     -0.088303
C      -0.036517      1.093154     -0.126725
C       1.065205      0.047871      0.249733
C      -0.034227     -1.004018      0.346280
H       0.046997      1.602750     -1.085674
H      -0.227925      1.817494      0.664633
H       1.581837      0.260866      1.186006
H       1.800965     -0.112354     -0.539135
H      -0.108522     -1.950440      0.863421
H      -1.056648     -1.243024     -0.742464
