15
Extracted from Q-Chem output
C      -1.358984     -0.180710     -0.668923
C      -0.793560     -0.237645      0.758609
O       0.045993     -1.378460      0.669939
C       0.741977     -0.999813     -0.516363
C       1.241194      0.476438     -0.182980
C       0.227943      0.898556      0.891142
C      -0.194873     -0.530198     -1.539651
H      -2.029645     -1.039287     -0.829571
H      -1.900989      0.716874     -0.965992
H      -1.506398     -0.354199      1.571181
H       1.523403     -1.710956     -0.759066
H       2.268177      0.410263      0.168238
H       1.233240      1.128707     -1.059482
H       0.672303      0.884555      1.885433
H      -0.201485      1.884220      0.711487
