12
Extracted from Q-Chem output
C      -1.234542      0.622639      0.045597
C      -0.894145     -0.805560     -0.141577
C       0.354680     -1.358868     -0.166216
C       1.436469     -0.658320      0.349040
C       1.740110      0.691068      0.526692
O       1.454135      1.379949      1.500922
H      -1.115365      0.911956      1.095276
H      -0.555385      1.267007     -0.513681
H      -2.263245      0.816568     -0.253207
H      -1.732495     -1.498708     -0.199222
H       0.436183     -2.429782     -0.329902
H       2.402301      1.070584     -0.289025
