12
Extracted from Q-Chem output
C      -1.956580      0.389126     -0.061257
C      -0.957746     -0.684395     -0.322372
C       0.403703     -0.485851     -0.215606
C       1.473169      0.228097     -0.228088
C       2.610750      0.464805      0.583516
O       2.782136      1.427853      1.303689
H      -2.181226      0.476774      1.004973
H      -1.558997      1.350818     -0.391789
H      -2.893556      0.167322     -0.574011
H      -1.309529     -1.693849     -0.509646
H       0.215282     -1.326130      0.584312
H       3.401294     -0.306037      0.450975
