11
Extracted from Q-Chem output
O       2.350559      0.097373      0.494317
C       1.413475     -0.417297     -0.192659
C       0.186845     -0.156456      0.440503
C      -0.796909      0.855317     -0.145943
C      -1.174498     -0.576430     -0.021076
H       1.671656     -0.984901     -1.089581
H       1.420340      0.339344      1.229176
H      -1.206252      1.576220      0.550078
H      -0.619110      1.243662     -1.142106
H      -1.877271     -0.858740      0.753389
H      -1.262997     -1.150486     -0.937567
