15
smiles: [C-:6]#[O+:7].[C:1]([C:2]([C:3]([C:4][O:5][H:15])([H:13])[H:14])([H:11])[H:12])([H:8])([H:9])[H:10]
C       -2.52557400      -0.22074400      -0.58348700
C       -1.16454600      -0.45932300       0.05800700
C       -0.08326100       0.43659000      -0.53653200
C        1.32511800       0.35751200      -0.04591500
O        1.39801700      -0.54862500       0.90092500
C        4.21068000       0.31202600       0.76772300
O        5.03107400       0.92988300       0.31240000
H       -2.85054400       0.81393500      -0.44757000
H       -3.28993200      -0.86782600      -0.14969400
H       -2.49597500      -0.41707100      -1.65831800
H       -0.87641200      -1.50686300      -0.06256300
H       -1.22739300      -0.28831500       1.13586100
H       -0.00114600       0.30136200      -1.62398600
H       -0.34410100       1.49998100      -0.44174100
H        2.31001800      -0.58727300       1.20702100
