11
Extracted from Q-Chem output
C      -1.201164     -0.687695     -0.640011
C      -0.077042      0.123838     -0.039199
C       1.270133     -0.325765     -0.174727
C       2.385592     -0.744558     -0.315394
C      -0.315269      1.236683      0.621790
N      -0.544766      2.318200      1.125344
H      -1.241576     -1.680072     -0.187450
H      -2.161266     -0.196020     -0.487403
H      -1.042838     -0.811729     -1.712566
H      -0.713760      2.323550      2.127911
H       3.378407     -1.106927     -0.438401
