11
Extracted from Q-Chem output
C      -1.219030     -0.644945     -0.545767
C      -0.091798      0.223219     -0.050828
C       1.253459     -0.210527     -0.103561
C       2.385068     -0.610218     -0.171338
C      -0.356155      1.479223      0.473379
N      -0.611873      2.513901      1.028408
H      -1.183228     -1.635150     -0.088672
H      -2.186123     -0.193937     -0.324389
H      -1.147227     -0.772811     -1.628924
H      -0.435458      1.053104      1.557900
H       3.389228     -0.956678     -0.233031
