12
Extracted from Q-Chem output
O      -2.125634     -1.008555     -0.210411
C      -1.222767     -0.040128     -0.653991
C       0.098812     -0.036362      0.056960
O       0.029645     -0.521646      1.267823
C       1.258971      0.485699     -0.496874
C       2.490053      0.590283      0.145286
H      -2.197645     -0.961476      0.745751
H      -1.624627      0.980857     -0.557289
H      -1.046495     -0.212096     -1.716052
H       1.155837      0.836613     -1.521841
H       0.921070     -0.449233      1.661290
H       2.436030      0.179676      1.183867
