16
Extracted from Q-Chem output
C      -1.456278      1.080783      0.053200
C      -1.344150     -0.417817      0.308931
C       0.072001     -0.880633      0.646711
C       1.040505     -0.690293     -0.488201
C       1.949544      0.449013     -0.566641
O       2.418458     -0.833316     -0.185314
H      -0.860770      1.387732     -0.808960
H      -1.106852      1.652495      0.916844
H      -2.490616      1.370048     -0.140369
H      -1.704294     -0.966863     -0.567646
H      -2.007950     -0.696523      1.131464
H       0.058114     -1.942983      0.908422
H       0.449599     -0.346845      1.524366
H       0.749425     -1.161024     -1.427863
H       2.298835      0.804498     -1.532129
H       1.934429      1.191726      0.227186
