17
Extracted from Q-Chem output
C       1.999966      1.047373     -0.314283
O       0.647351      1.084348     -0.567650
C       0.122105     -0.056922     -0.880303
C       0.774724     -1.141903      0.864063
O      -0.603344     -0.827197      1.101344
C      -1.132037     -0.455899     -0.167773
C      -2.196472      0.605770     -0.002147
H       1.617862     -0.188261      0.513817
H       2.583645      0.551249     -1.095722
H       2.359236      2.031865     -0.032713
H       0.581475     -0.640220     -1.674193
H       1.225133     -1.250663      1.855378
H       0.895306     -2.104840      0.353632
H      -1.551248     -1.339335     -0.669653
H      -2.663022      0.837346     -0.961279
H      -2.965675      0.245104      0.681155
H      -1.763770      1.515785      0.412194
