12
Extracted from Q-Chem output
C      -1.662398      0.529183      0.232960
C      -0.319830     -0.051771     -0.012669
C       0.058983     -1.242240     -0.474909
O       1.432492     -1.319247     -0.530134
C       1.949178     -0.133836     -0.087534
O       3.116925      0.118238     -0.014037
N       0.864656      0.642114      0.230286
H      -1.789008      0.801501      1.283234
H      -1.821549      1.425072     -0.371260
H      -2.433122     -0.195748     -0.024039
H      -0.496257     -2.106269     -0.793389
H       0.960056      1.575817      0.582349
