12
Extracted from Q-Chem output
C      -1.736207      0.496319      0.216782
C      -0.371738     -0.041525     -0.004539
C       0.019110     -1.254396     -0.437104
O       1.419228     -1.310767     -0.492352
C       1.792363     -0.115496     -0.085692
O       2.916975      0.439502      0.078525
N       0.795521      0.684943      0.218533
H      -1.864782      0.801676      1.256505
H      -1.911976      1.369532     -0.413477
H      -2.486998     -0.257224     -0.017732
H      -0.507114     -2.143849     -0.733225
H       1.921554      1.331660      0.414388
