15
Extracted from Q-Chem output
C      -1.392760      0.326252     -0.859588
C      -1.600700     -0.036241      0.585408
C      -0.228356     -0.017289      0.001480
C       0.758932     -1.185251     -0.057128
C       1.844857     -0.282692      0.545309
O       1.791224      1.026798     -0.650664
C       0.894999      0.880166      0.451450
H      -1.687455     -0.396112     -1.610013
H      -1.522729      1.360127     -1.153000
H      -1.872302      0.754861      1.273329
H      -2.039611     -0.999436      0.813994
H       0.529319     -1.988317      0.647960
H       0.993120     -1.619504     -1.028793
H       2.684500      0.526419     -0.206942
H       0.808095      1.750727      1.095785
