16
Extracted from Q-Chem output
C       2.028565     -0.059484      0.169481
C       0.697110      0.276465     -0.442055
C      -0.094811      1.437110      0.018942
C      -0.578190      0.053964      0.393280
C      -1.888394     -0.511965     -0.190204
C      -1.084716     -1.631886     -0.668813
H       2.047786      0.180864      1.235101
H       2.828493      0.504637     -0.314589
H       2.246978     -1.122850      0.055995
H       0.290974      2.027295      0.841569
H      -0.680849      1.990371     -0.702525
H      -0.394670     -0.241659      1.417533
H      -2.604202     -0.649715      0.623354
H      -2.298426      0.136488     -0.964896
H       0.601752      0.033894     -1.490698
H      -0.921177     -2.292054      0.204869
