16
Extracted from Q-Chem output
C       1.928195     -0.206146      0.303038
C       0.563604      0.130784     -0.207718
C      -0.104095      1.465192     -0.135278
C      -0.686945      0.315475      0.621450
C      -1.762946     -0.501897     -0.053095
C      -0.915452     -1.126238     -1.161937
H       2.119849      0.334817      1.233921
H       2.706895      0.066211     -0.411601
H       2.017135     -1.273241      0.515429
H       0.410390      2.212119      0.456286
H      -0.618290      1.844876     -1.010344
H      -0.606545      0.332387      1.701829
H      -2.167311     -1.251263      0.631006
H      -2.592184      0.099447     -0.432392
H       0.276123     -0.321700     -1.248995
H      -0.457079     -2.033343     -0.735730
