14
Extracted from Q-Chem output
C      -1.749227      0.235795     -0.486059
C      -0.696820     -0.599620      0.229491
O      -0.328831     -1.649356     -0.637482
C       0.454777      0.246748      0.667384
C       1.695796      0.257373      0.124152
C       2.442842      1.409668      0.461882
H      -1.329392      0.646362     -1.405152
H      -2.602679     -0.392511     -0.739135
H      -2.088150      1.058971      0.143643
H      -1.146915     -1.009632      1.147467
H       0.272467     -2.240017     -0.179287
H       1.945298     -0.461178     -0.657228
H       0.258898      0.965151      1.458821
H       3.121681      1.643556     -0.379010
