14
Extracted from Q-Chem output
C      -1.856874      0.079366     -0.484826
C      -0.670082     -0.526540      0.242557
O      -0.092669     -1.480916     -0.614267
C       0.328868      0.500907      0.708597
C       1.662120      0.458246      0.370482
C       2.954409      0.507365      0.440801
H      -1.522154      0.549478     -1.411526
H      -2.581598     -0.696972     -0.729721
H      -2.346564      0.832526      0.134066
H      -1.038286     -1.013967      1.161386
H       0.693790     -1.844400     -0.195998
H       1.166587      0.456930     -0.690162
H      -0.061024      1.334620      1.290261
H       3.538871      0.923303     -0.376123
