13
Extracted from Q-Chem output
C      -0.937914     -0.853723      0.175386
C       0.326274     -0.044034      0.400784
O       1.229039      0.113226     -0.676029
C       2.208535     -0.794805     -0.745374
O       2.380427     -1.699526      0.014529
C      -0.966623      0.610051      0.275401
C      -1.640135      1.735237      0.231219
H      -1.069745     -1.285064     -0.811049
H      -2.714975      1.742458      0.093458
H      -1.291703     -1.467600      0.995407
H       0.814122     -0.115599      1.365599
H       2.841968     -0.572948     -1.614761
H      -1.137073      2.690483      0.323295
