11
Extracted from Q-Chem output
C      -1.316914      0.016475      0.328749
C       0.046003      0.154908      0.080719
C       0.881460     -0.915348     -0.282111
O       2.111959     -0.486646     -0.326049
N       2.168527      0.914085     -0.107348
C       0.933478      1.271969      0.042982
H      -1.687348     -0.641966      1.100899
H      -2.018197      0.781466      0.001744
H      -1.316561     -1.654711     -0.423734
H      -0.503766     -1.894705     -0.441563
H       0.717274      2.314203      0.229882
