11
Extracted from Q-Chem output
N      -1.995130     -0.125675      0.081400
C      -0.626686      0.073158      0.102702
N       0.208078     -1.092471      0.192431
N       1.387803     -0.597221     -0.099009
C       1.359710      0.767910     -0.292697
C       0.090926      1.284579     -0.179329
H      -2.482401      0.682217     -0.267309
H      -2.301589     -0.997034     -0.316298
H       2.194658     -1.172924      0.084365
H       2.298150      1.259138     -0.514050
H      -0.162041     -0.257386      1.223002
