12
Extracted from Q-Chem output
C       1.561550      0.309357     -0.686714
C       0.282001      0.491081      0.070314
O      -0.472374      1.474435     -0.246851
C      -0.259433     -0.488222      0.905872
C      -1.942026     -0.464531     -0.234449
O      -2.616544     -1.377143     -0.384322
H       1.338223      0.159782     -1.746310
H       2.143352     -0.531935     -0.314293
H       2.153740      1.221858     -0.608998
H       0.267900     -1.420854      1.067672
H      -0.898839     -0.167400      1.721317
H      -1.529353      0.793783     -0.392566
