17
Extracted from Q-Chem output
C      -1.953605     -0.242394      0.051824
C      -0.520358     -0.354335     -0.448212
N      -0.166030      0.850611     -1.212537
C       0.632909      0.974715     -2.233499
C       0.443128     -0.601197      0.699984
C       1.875815     -0.272439      0.629849
N       0.980492      0.489949      1.502209
H      -2.645534     -0.083222     -0.776322
H      -2.057234      0.586167      0.757442
H      -2.247253     -1.153697      0.572994
H      -0.436275     -1.191746     -1.145464
H      -0.613604      1.695567     -0.876110
H       0.998984     -0.046782     -2.465434
H       0.157697     -1.464386      1.295249
H       2.594836     -0.898233      1.144159
H       2.249017      0.215270     -0.264549
H       0.779567      1.386388      1.071997
