19
Extracted from Q-Chem output
C      -2.457335      0.328015      0.753677
C      -1.018325      0.586986      0.367686
C      -0.524329      0.124350     -0.835853
C       0.828386      0.399035     -1.375982
C       1.299316     -0.813472     -0.636797
C       1.739482     -0.805458      0.668428
O       2.318907      0.312934      1.241393
H      -3.121750      1.084314      0.328139
H      -2.593086      0.343710      1.835835
H      -2.788698     -0.646833      0.390705
H      -0.275832     -0.248692      1.358705
H      -0.589687      1.508332      0.759786
H      -1.103545     -0.620234     -1.374381
H       0.919349      0.325722     -2.456682
H       1.248509      1.348696     -1.042245
H       1.139602     -1.773102     -1.109288
H       0.459761     -0.757524      1.462775
H       2.117425     -1.727565      1.096065
H       2.417694      0.985359      0.565211
