12
Extracted from Q-Chem output
C      -1.421576      0.694078      0.877564
C      -0.258343     -1.078589      0.321429
N       0.775923     -0.532508     -0.399596
C       1.945051     -0.080593      0.180734
O       2.146576     -0.010482      1.359929
H      -2.347563      0.522750      1.423368
H      -1.610764      0.927724     -0.162825
H      -0.793227      1.446187      1.350119
H      -1.058627     -1.414202     -0.336480
H      -0.737116     -0.361548      1.221211
H       0.699775     -0.363170     -1.392799
H       2.684514      0.235552     -0.577374
