14
smiles: [C:1]([C@@:2]([O:3][H:11])([C:4](=[C:5]=[O:6])[H:13])[H:10])([H:7])([H:8])[H:9].[H:12][H:14]
C       -1.38194500      -0.16212400      -0.56904200
C       -0.34522800       0.63027300       0.21566500
O       -0.97053300       1.53422400       1.11882700
C        0.53981800      -0.27315000       1.02480800
C        1.84432000      -0.17242500       0.99809300
O        2.99731700      -0.09174600       0.95533200
H       -2.02731800       0.50625000      -1.14526100
H       -0.89613000      -0.84653700      -1.26551400
H       -2.00766100      -0.74168600       0.11236000
H        0.28232300       1.19255200      -0.48840400
H       -1.61130400       2.05611100       0.63033000
H        1.63097500      -1.46232700      -1.63150200
H        0.11117000      -0.99476000       1.70810400
H        1.97065700      -1.45917200      -2.29409000
