14
Extracted from Q-Chem output
C      -1.638787     -0.259256     -0.429340
C      -0.310621      0.424139     -0.134655
O      -0.493116      1.566471      0.692668
C       0.634093     -0.485060      0.585162
C       2.006296     -0.447834      0.404870
O       3.021671     -0.878134      0.876302
H      -2.326739      0.431482     -0.923256
H      -1.496725     -1.117335     -1.088031
H      -2.103528     -0.603530      0.496292
H       0.145998      0.741076     -1.086787
H      -1.243885      2.067557      0.365857
H       1.504489     -0.710629     -0.827048
H       0.255591     -0.972988      1.479855
H       2.129885      0.099840     -0.772976
