14
Extracted from Q-Chem output
O       1.387784      0.422547      1.823074
C       0.468463      0.053081      1.157326
C       0.711203      1.192883     -1.176839
C      -0.184910      0.588288     -0.117118
C      -0.787968     -0.830821     -0.305463
C      -0.389810     -1.208089      1.143872
H       1.500790      0.494594     -1.462160
H       1.187000      2.100354     -0.802905
H       0.142708      1.448738     -2.072916
H      -0.970324      1.293835      0.175152
H      -1.848505     -0.877608     -0.545316
H      -0.231853     -1.408337     -1.044863
H      -1.215758     -1.131515      1.853831
H       0.137103     -2.146712      1.312111
