14
Extracted from Q-Chem output
O       1.272009      0.716140      1.669721
C       0.431929      0.225455      0.778111
C       0.815999      0.795705     -0.788849
C      -0.593663      0.777146     -0.145717
C      -1.207229     -0.608346     -0.327764
C      -0.090935     -1.190654      0.581925
H       1.626351      0.762159      0.389337
H       1.145929      1.824936     -0.905062
H       1.020258      0.129067     -1.619022
H      -1.133513      1.714415     -0.099571
H      -2.198124     -0.696189      0.114790
H      -1.238743     -0.978783     -1.353048
H      -0.467683     -1.567261      1.533362
H       0.604253     -1.915779      0.160268
