11
smiles: [C:1]([C:2]#[N:3])([H:7])([H:8])[H:9].[N-:4]([N+:5]#[C:6][H:11])[H:10]
C       -2.15216000      -0.67019900       0.09426300
C       -1.53696900      -0.72543100      -1.22419400
N       -1.05254500      -0.76937000      -2.26239800
N        3.33174800       0.92790300       1.27069500
N        2.34892100       0.74106200       0.55292700
C        1.34088100       0.44790700       0.00861600
H       -1.45419900      -0.24201200       0.81276300
H       -3.05014600      -0.05433500       0.06046500
H       -2.42387400      -1.67410400       0.41871500
H        3.54705800       1.92423600       1.28921400
H        1.13095200       0.16724100      -1.00835200
