8
smiles: [N:3](=[C:4](/[N:5]=[O:6])[H:8])\[H:7].[O+:1]#[C-:2]
O        3.16169000       0.46601600       0.42930600
C        2.70690200      -0.24850400      -0.30873200
N       -0.39585600       0.86741100       0.06544500
C       -1.30077700       0.01243500       0.19341000
N       -0.94855000      -1.41251200       0.26647300
O       -0.06156000      -1.65126700       1.02305700
H       -0.77984200       1.80157600      -0.05823100
H       -2.38254400       0.16156800       0.15306500
