12
Extracted from Q-Chem output
C       1.295381     -0.474854      0.685768
C       0.445361     -0.986764     -0.279188
C      -0.927368     -0.878514      0.303205
C      -1.446786      0.371185      0.201899
C      -0.447998      1.252545     -0.262886
C       0.812292      0.667681     -0.210577
H       2.357931     -0.704491      0.698237
H       0.668877     -1.592317     -1.159776
H      -1.356363     -1.719767      0.830551
H      -2.423071      0.677111      0.552564
H      -0.608092      2.263144     -0.612763
H       1.642438      1.115820     -0.746015
