14
smiles: [C:1](=[C:2]([H:9])[H:10])([H:7])[H:8].[O:3]=[C:4]([H:11])[H:12].[O:5]=[C:6]([H:13])[H:14]
C        2.34445300       0.81064900      -0.17056300
C        1.63899900      -0.24321100      -0.54361700
O       -1.05947200      -1.55737000       1.36048500
C       -1.84068900      -1.72735600       0.47129800
O       -1.88913100       0.70640900      -0.66346400
C       -1.14381300       1.31695500       0.04482000
H        2.54483800       1.02030700       0.87406100
H        2.75061200       1.50842800      -0.89400800
H        1.43868600      -0.45253300      -1.58831500
H        1.23282800      -0.94099800       0.17976500
H       -2.92968900      -1.59007400       0.61448500
H       -1.51675200      -2.03057700      -0.54276500
H       -0.75045100       0.89015800       0.98733500
H       -0.80712300       2.34172100      -0.20420300
