14
Extracted from Q-Chem output
C       1.380529      0.697532      0.084241
C       1.427334     -0.661095     -0.095422
O      -0.465128     -1.714415      0.136089
C      -1.561097     -1.104900      0.142916
O      -1.335087      0.566826      0.678911
C      -0.544796      1.186652     -0.088405
H       1.579686      1.091084      1.073898
H       1.660670      1.333115     -0.748292
H       1.504994     -1.093785     -1.083009
H       1.582177     -1.336353      0.729678
H      -2.287212     -1.345455      0.931186
H      -2.032577     -0.820690     -0.817264
H      -0.291705      2.204074      0.206832
H      -0.616405      1.005756     -1.169444
