15
Extracted from Q-Chem output
C       2.178225      0.047410     -0.123301
C       0.704759     -0.076735     -0.330568
C      -0.205168     -0.101331      0.898622
O      -0.779182      1.207151      0.967638
C      -1.361483      1.138101     -0.268120
C      -1.913094     -0.134098     -0.509353
C      -1.267054     -0.980055      0.356721
H       2.610110     -0.861085      0.317002
H       2.409664      0.874550      0.553678
H       2.690027      0.213143     -1.072538
H       0.388708     -0.656403     -1.186122
H       0.272423     -0.364000      1.841254
H      -1.679602      2.073865     -0.709196
H      -2.632109     -0.368192     -1.279860
H      -1.396615     -2.036330      0.528570
