15
Extracted from Q-Chem output
C       1.930499     -0.472049     -0.780902
C       0.621060     -0.049140     -0.229306
O       0.519577      1.289398      0.092129
C      -0.507810     -0.714804     -0.012245
O      -0.822275     -2.021773     -0.230504
C      -1.569452      0.209149      0.496466
C      -0.724727      1.456472      0.786044
H       2.730942     -0.286146     -0.061778
H       1.935981     -1.535318     -1.027070
H       2.162952      0.087753     -1.689719
H      -0.070971     -2.472397     -0.621841
H      -2.062448     -0.173720      1.391629
H      -2.339523      0.375418     -0.263624
H      -1.179221      2.385048      0.443073
H      -0.508540      1.541311      1.855423
