15
Extracted from Q-Chem output
C       1.845848     -0.473668     -1.084877
C       0.770355      0.190473     -0.267162
O       0.876805      1.402711      0.033053
C      -0.374983     -0.514237      0.104318
O      -0.495571     -1.879135      0.147607
C      -1.660144      0.277767      0.219961
C      -1.106570      1.231929      1.144877
H       2.761287     -0.560645     -0.496094
H       1.547973     -1.459410     -1.441426
H       2.070223      0.171676     -1.934944
H       0.212287     -2.251839      0.675714
H      -2.385931     -0.394078      0.678342
H      -2.045717      0.687482     -0.713140
H      -1.005984      2.282856      0.927178
H      -0.893832      0.907316      2.154367
