13
Extracted from Q-Chem output
O       2.032520     -1.075462      0.265582
C       1.328413      0.128445      0.316844
C      -0.161055     -0.060438     -0.045882
C      -0.694278     -1.082651      1.307494
C      -1.069043     -1.598728      0.231024
C      -0.930840      1.166848      0.043795
C      -1.532686      2.198981      0.105786
H       1.684381     -1.644647      0.959664
H       1.385939      0.608792      1.296715
H       1.772169      0.790796     -0.429397
H      -0.157914     -0.387475     -1.094384
H      -1.464252     -2.150102     -0.597150
H      -2.073807      3.113541      0.167675
