15
Extracted from Q-Chem output
C       2.012252     -0.459749      0.052338
C       1.120335      0.779805      0.065492
C      -0.319398      0.456127     -0.234088
O      -0.841307     -0.323590      0.725489
N      -1.012779      0.815279     -1.229239
C      -2.192727     -0.725490      0.549453
H       1.983549     -0.951106     -0.922033
H       3.047642     -0.189279      0.263579
H       1.688040     -1.179173      0.803927
H       1.162500      1.255701      1.048566
H       1.468805      1.510241     -0.666202
H      -0.465007      1.396043     -1.852820
H      -2.309176     -1.283589     -0.380395
H      -2.429179     -1.353651      1.405442
H      -2.851200      0.143451      0.516540
