15
Extracted from Q-Chem output
C       2.188485     -0.452393      0.022665
C       1.234358      0.736029      0.054448
C      -0.210892      0.303365      0.071178
O      -0.591240     -0.564692      0.904938
N      -1.136987      0.750786     -0.708211
C      -2.485570     -0.570220      0.210842
H       2.056218     -1.035805     -0.890466
H       3.225262     -0.115241      0.061359
H       2.002529     -1.110990      0.870456
H       1.397552      1.318360      0.965162
H       1.412962      1.403069     -0.790121
H      -0.917529      1.432863     -1.423034
H      -2.328540     -1.423844     -0.431168
H      -2.646766     -0.814895      1.251496
H      -3.199842      0.143610     -0.169543
