13
Extracted from Q-Chem output
O       2.980294      0.485562     -0.218036
N       2.108385      0.017775      0.772137
C       0.972763      0.484577      0.703864
C      -0.999177     -0.999422     -0.786475
C      -1.400839      0.231925      0.009801
C      -0.262037      0.896522      0.736256
H       3.795351      0.023354     -0.007648
H      -1.865382     -1.434247     -1.286460
H      -0.565153     -1.762849     -0.137978
H      -1.863665      0.972292     -0.650465
H      -2.167636     -0.030026      0.745973
H      -0.257317     -0.750422     -1.547960
H      -0.474439      1.784483      1.323605
