15
Extracted from Q-Chem output
O      -1.638913      1.600757     -0.097090
C      -1.662070      0.373422     -0.788453
C      -1.134810     -0.699328      0.125430
C       0.700105     -0.528380      1.569903
O       0.271222     -0.491891      0.345160
C       2.164956     -0.253962      1.560884
O       2.833231     -0.072664      0.337349
H      -1.839765      2.311806     -0.706239
H      -1.048652      0.410488     -1.697294
H      -2.682643      0.092555     -1.080334
H      -1.244508     -1.679519     -0.341970
H      -1.628820     -0.685659      1.097041
H       2.274098      0.629510      2.210113
H       2.628417     -1.080265      2.114219
H       2.163620      0.035724     -0.343096
