10
Extracted from Q-Chem output
O      -0.819727      1.724768      0.449349
C      -0.984821     -0.752329      0.358294
C      -0.176339      0.497273      0.619963
C       1.059634      0.301078     -0.212742
N       1.109118     -0.864176     -0.713732
N      -0.140151     -1.454194     -0.333743
H      -1.751512      1.580854      0.635543
H       0.157593      0.354900      1.669818
H       1.875206      0.998928     -0.343419
H      -0.288556     -2.389255     -0.678541
