10
Extracted from Q-Chem output
O       0.979362     -0.319504      0.843980
C       1.077639      0.031988     -0.603282
C       0.309719      1.341036     -0.372756
N      -0.621010      1.241817      0.497465
N      -0.607266     -0.072195      1.016413
C      -0.933542     -0.895782     -0.203055
N      -0.057993     -0.871742     -1.099418
H       1.142508     -1.270566      0.947931
H       0.452331      2.265419     -0.915319
H      -1.893655     -1.394899     -0.215937
