13
Extracted from Q-Chem output
C       0.803005      0.801087      1.439455
O       0.998733     -0.508593      0.947766
C       0.291574     -0.924364     -0.140554
C      -1.114821     -0.728219     -0.518980
O      -1.561175      0.602429     -0.214491
C      -0.718318      1.177442     -1.093095
C      -0.041692     -0.120467     -1.417611
H       1.585410      0.964699      2.177650
H      -0.178127      0.914870      1.905078
H       0.633646     -1.917214     -0.418494
H      -1.868723     -1.478624     -0.713033
H       0.896361      1.542704      0.635129
H       0.365984     -0.404014     -2.375407
