13
Extracted from Q-Chem output
C      -1.973521      0.011126     -1.009176
O      -1.146805     -0.031363      0.137041
C       0.191135      0.020564     -0.063692
N       0.837931      0.100242     -1.135158
N       0.785151     -0.032037      1.202879
C       2.103242     -0.015616      1.428117
O       2.250507     -0.082413      2.754087
H      -2.995621     -0.048593     -0.644251
H      -1.774818     -0.836285     -1.670379
H      -1.839172      0.947276     -1.557330
H       0.242324      0.125445     -1.952866
H       0.132040     -0.088368      1.978433
H       3.192828     -0.072356      2.930461
