19
Extracted from Q-Chem output
C       2.461990      0.322715     -0.825082
C       1.056950     -0.268370     -0.825980
C       0.469261     -0.313213      0.561355
C      -0.248437      0.867906      1.091846
C      -2.509579      0.671756     -0.059519
C      -2.019072     -0.663829     -0.372973
C      -1.017882     -0.445650      0.782224
H       2.879029      0.354562     -1.832766
H       3.137674     -0.269134     -0.203085
H       2.454664      1.341213     -0.430943
H       0.410006      0.330534     -1.472821
H       1.076566     -1.277644     -1.249247
H       1.052379     -0.883156      1.278596
H      -0.369685      1.716490      0.437807
H      -0.174289      1.108461      2.143722
H      -3.167669      0.572660      0.823736
H      -2.618508     -1.544379     -0.131828
H      -1.534042     -0.777784     -1.341423
H      -1.314147     -0.969799      1.679830
