19
Extracted from Q-Chem output
C      -1.771675      0.032990      0.496750
C      -1.405881     -0.346685     -0.854820
C      -0.045362     -0.114558     -1.350704
C       0.724053      1.121629     -0.852063
C       1.120081      0.835647      0.617617
C       0.904418     -0.645885      0.794897
C       0.499405     -1.230079     -0.479455
H      -1.696559      1.109067      0.713151
H      -2.761897     -0.316112      0.786602
H      -0.997552     -0.402310      1.224079
H      -2.052952     -0.992018     -1.434645
H       0.066487     -0.284819     -2.419221
H       1.618917      1.246640     -1.465434
H       0.130459      2.031380     -0.947709
H       2.141944      1.158978      0.831961
H       0.472563      1.386298      1.306011
H       1.088784     -1.212012      1.696111
H       1.694816     -1.157595     -0.308477
H       0.223703     -2.269601     -0.592074
