13
smiles: [O:1]1[C@@:2]2([H:9])[C:3]([H:10])([H:11])[C@@:4]12[H:12].[O:5]=[C:6]([O:7][H:8])[H:13]
O       -0.77556600       0.80356700      -0.25180000
C       -1.25234400      -0.40065800       0.36587000
C       -2.17877500      -0.79832800      -0.73929100
C       -0.73954300      -0.44936800      -0.94990300
O        2.35301200      -0.27111200      -0.51105600
C        2.60459300       0.71871200       0.10767700
O        1.70188700       1.61445200       0.51882000
H        0.83302800       1.30949100       0.22298500
H       -0.92297700      -0.76863000       1.32135400
H       -2.43553900      -1.85231200      -0.80069200
H       -2.94096500      -0.09442400      -1.06189400
H        0.13930800      -0.87058400      -1.40491400
H        3.60976700       1.02756200       0.42309800
