14
Extracted from Q-Chem output
C       1.316703     -0.092373     -0.326413
C       0.553112      0.472427      0.847271
C      -0.740625      0.773574      0.837522
C      -1.685102      0.628975     -0.312689
O       0.581820     -2.091775     -1.433843
C       1.054349     -1.572498     -0.460526
H       1.051293      0.389891     -1.267501
H       2.389746      0.045365     -0.165064
H       1.108542      0.617107      1.767946
H      -2.121340      1.596164     -0.575357
H      -1.168498      1.170478      1.754317
H      -1.211594      0.210763     -1.200015
H      -2.514395     -0.028697     -0.040656
H       1.309067     -2.179720      0.433243
