14
Extracted from Q-Chem output
C       1.434379      0.015046     -0.507831
C       0.645049      0.472537      0.689839
C      -0.758305      0.587651      0.680227
C      -1.499110      0.143465     -0.462478
O      -0.330347     -1.603169     -0.702023
C       0.739563     -1.238761     -0.135047
H       1.173681      0.416656     -1.484882
H       2.504656      0.050057     -0.331379
H       1.173099      0.669083      1.611579
H      -1.330141      1.514498      0.104762
H      -1.271798      0.537701      1.635655
H      -1.135346      0.352996     -1.454297
H      -2.550886     -0.093305     -0.358453
H       1.181774     -1.848967      0.659565
