17
smiles: [C:2]([H:9])[H:10].[O:1]([C:3]([C:4]1([H:13])[C:5]([H:14])([H:15])[O:6][C:7]1([H:16])[H:17])([H:11])[H:12])[H:8]
O        1.49470700      -0.95250600       0.43677400
C        2.47971000      -0.42075900      -0.67404500
C        0.14292600      -1.05048200       0.03670400
C       -0.47593200       0.29584900      -0.27575800
C       -1.99111300       0.27242500      -0.52064000
O       -2.24720000       0.97708100       0.70260000
C       -0.84602200       1.16166400       0.93832100
H        1.53401400      -0.50912400       1.28617600
H        3.38565000      -0.96623700      -0.33683600
H        2.66258100       0.59992500      -0.27800600
H       -0.45816500      -1.56585500       0.79903000
H        0.14008300      -1.67585500      -0.85888200
H        0.11264900       0.80545200      -1.03831000
H       -2.46015700      -0.71689400      -0.52638200
H       -2.33354100       0.83595000      -1.39313700
H       -0.55855900       2.21482400       0.86862400
H       -0.54521300       0.77495600       1.91941400
