12
Extracted from Q-Chem output
C      -1.245892     -0.337439     -0.006601
C       0.199332      0.052293      0.069622
N       0.600945      1.257628      0.066998
O      -0.460162      2.155536     -0.016220
C       1.250013     -1.008324      0.156340
H      -1.360862     -1.420372      0.008629
H      -1.697837      0.058412     -0.917825
H      -1.798485      0.093253      0.830399
H      -0.017797      3.006062     -0.008339
H       1.202709     -1.662276     -0.718436
H       1.087709     -1.634269      1.037574
H       2.240325     -0.560504      0.212968
