14
Extracted from Q-Chem output
C       1.892123      0.033844      0.752457
O       0.882690      0.873741      0.249048
C      -0.561021      0.381910     -0.886600
C      -0.953486     -1.036551     -0.614400
O      -1.876000     -0.614391      0.396677
C      -1.497942      0.752588      0.109466
H       1.492316     -0.919132      1.122095
H       2.630504     -0.170058     -0.027785
H       2.404341      0.530458      1.580615
H      -0.162420      0.845795     -1.774843
H      -0.191227     -1.730787     -0.255674
H      -1.478691     -1.471340     -1.471307
H      -0.244187      1.002888      0.730210
H      -2.267084      1.514133      0.101999
