16
Extracted from Q-Chem output
C       2.607983     -0.419046     -0.027012
C       1.181166      0.020439     -0.082566
C       0.042263     -0.776881     -0.183933
C      -1.080806      0.035667     -0.074052
C      -2.518335     -0.376547     -0.097803
C      -0.590176      1.336657      0.074244
N       0.856767      1.323668      0.020521
H       2.891848     -0.722142      0.984262
H       2.777125     -1.271568     -0.686377
H       3.266398      0.393225     -0.332168
H       0.037591     -1.853443     -0.295102
H      -3.171903      0.473667     -0.295763
H      -2.822996     -0.811859      0.856845
H      -2.698331     -1.125756     -0.870249
H      -1.103798      2.277554     -0.062748
H       0.190270      1.505062      1.075279
