14
smiles: [C-:5]#[O+:6].[C:1]([C:2](=[O:7])[H:11])([H:8])([H:9])[H:10].[C:3](=[N:4][H:14])([H:12])[H:13]
C       -1.25600100      -1.22456400       0.23456600
C       -0.98614400      -1.25464700      -1.23939300
C        0.66581700       2.18201700       0.12513900
N        0.40533800       1.70143900       1.26101500
C        2.67182300      -0.68967800      -0.06804600
O        2.19369800      -1.61948200       0.34296800
O       -0.33092200      -0.44116900      -1.82983900
H       -0.78825800      -0.35676700       0.69530500
H       -0.87607600      -2.14301100       0.68989000
H       -2.33534700      -1.20751000       0.40688600
H       -1.44218900      -2.10727700      -1.78629300
H        0.45034400       1.58498400      -0.76162800
H        1.10039200       3.17222100      -0.04576800
H        0.65221200       2.35787700       2.00039000
