14
Extracted from Q-Chem output
O       0.801973     -0.866238     -1.407162
C      -0.064989      0.114283     -1.502655
C      -1.200465      0.169474     -0.636803
C      -0.950225     -0.430000      0.782922
O       0.394170     -0.699502      1.054039
C       1.143068      0.482886      1.242698
H       0.783825     -1.202158     -0.466720
H       0.248173      0.938434     -2.141138
H      -1.932798     -0.569532     -0.986798
H      -1.661432      1.158271     -0.662191
H      -1.486133     -1.368068      0.937765
H       1.084509      1.130227      0.352558
H       0.753291      1.031771      2.099351
H       2.181583      0.196809      1.404296
