13
Extracted from Q-Chem output
C       1.838902      0.028284      0.729225
O       0.679472     -0.646319      0.304234
C      -0.166312      0.186836     -0.456457
C      -1.503057     -0.579461     -0.757662
C      -1.062606      1.131777      0.148829
H       1.596805      0.863723      1.397761
H       2.411132      0.416328     -0.123000
H       2.453382     -0.689609      1.270029
H       0.324280      0.487412     -1.385551
H      -1.787476     -0.483485     -1.798845
H      -1.310681     -1.606228     -0.452395
H      -2.355638     -0.215725     -0.154817
H      -1.147034      0.836138      1.211442
