12
Extracted from Q-Chem output
O      -1.757934     -0.451866      0.896693
C      -0.996290     -1.310899      0.543953
C      -0.024494      1.079022     -1.237761
C       0.622475      1.088471      0.133584
N       1.215153     -0.167766      0.513544
C       0.502186     -1.200001      0.642957
O      -0.312297      0.096458     -1.858214
H      -1.364748     -2.279479      0.153506
H      -0.227144      2.089853     -1.642443
H       1.399041      1.857815      0.118798
H      -0.153393      1.422213      0.831402
H       1.015698     -2.140365      0.857725
