12
Extracted from Q-Chem output
O      -1.714014     -0.588400      1.362796
C      -1.151350     -0.912036      0.365826
C      -0.106718      0.639976     -0.898182
C       0.562047      1.149394      0.319792
N       1.171899     -0.006171      0.884051
C       0.648937     -0.933565      0.108484
O       0.538338     -0.458315     -1.292213
H      -1.581848     -1.652461     -0.357145
H      -0.571241      1.247968     -1.669589
H       1.279069      1.900999     -0.046331
H      -0.068482      1.641570      1.067132
H       0.939788     -1.981234      0.133834
