17
Extracted from Q-Chem output
C      -1.362120     -0.201859      0.330006
C      -0.732225     -1.346623     -0.453310
O       0.621408     -1.139953     -0.795005
C       1.423823     -0.622840      0.239994
C       1.498549      0.903820      0.165172
C       0.332039      1.797956      0.089950
C      -0.991413      1.200856     -0.170759
H      -1.106418     -0.276586      1.390320
H      -2.447604     -0.325087      0.282179
H      -0.838040     -2.282657      0.112449
H      -1.249057     -1.476423     -1.406868
H       1.073918     -0.960212      1.222843
H       2.425828     -1.037737      0.102818
H       2.214581      1.306524      0.891252
H       1.968639      1.182258     -0.797493
H      -0.981427      1.236086     -1.278568
H      -1.769207      1.919646      0.100242
