15
Extracted from Q-Chem output
O       2.777792     -0.563864      0.354361
C       1.704312     -0.228763     -0.144810
N       0.655386     -1.213011     -0.027876
C      -0.695680     -1.062606     -0.477686
C      -1.048488     -0.053823      0.561188
C      -0.891129      1.304727      0.271546
N       1.304071      0.870998     -0.759021
H       0.891091     -1.988949      0.567726
H      -0.745592     -0.654827     -1.486986
H      -1.243952     -1.999068     -0.406493
H      -1.134138     -0.374151      1.593055
H      -2.087969      0.856842      0.417614
H      -0.737874      2.027796      1.063359
H      -0.844142      1.625905     -0.754938
H       2.093982      1.506616     -0.784156
