11
Extracted from Q-Chem output
C      -1.095207      0.668404      0.170592
C       0.248252     -1.399744     -0.188133
O      -0.040948     -2.340719      0.488549
C       0.286541      0.022765      0.366290
C       1.334980      0.797883     -0.296185
N       2.151399      1.390104     -0.842330
H      -1.843989      0.083176      0.703274
H      -1.361762      0.706801     -0.886522
H      -1.095866      1.685128      0.560731
H       0.461860     -1.499902     -1.270709
H       0.516945     -0.047500      1.431169
