12
Extracted from Q-Chem output
C       1.026731     -0.346528     -0.268089
C       0.164263      0.955839     -0.321248
C      -0.777097      0.595949     -1.464318
O      -1.076615     -0.639642     -1.151681
C      -0.334091     -0.935373      0.098929
C      -0.628560      0.344503      0.878963
H       1.731118     -0.336974      0.561885
H       1.494771     -0.703840     -1.184566
H       0.590913      1.952831     -0.308129
H      -1.674075      0.619742      1.012616
H      -0.537267     -1.952942      0.417669
H      -0.075794      0.415771      1.814119
