9
Extracted from Q-Chem output
O       1.997384      0.336536     -0.398446
C       1.362902     -0.204100      0.472104
C       0.016182      0.155605      0.979936
C      -1.071555      0.163986     -0.499596
O      -0.989865     -0.716179      0.623496
H       1.814221     -0.974089      1.141172
H      -0.441078      1.093828     -0.219309
H      -2.072893      0.578714     -0.576092
H      -0.659789     -0.270197     -1.404744
