12
Extracted from Q-Chem output
O       1.901873      0.092948     -1.039903
C       0.995928     -0.041552     -0.177141
C       0.035191     -1.149769      0.054578
C      -1.257438     -0.283417      0.141456
C      -0.916930      1.187690      0.365670
C       0.489091      1.226719      0.307941
H       0.253599     -1.641928      1.005133
H       0.047926     -1.889886     -0.742885
H      -1.838467     -0.346577     -0.784749
H      -1.937857     -0.613874      0.928606
H       1.344487      1.316262     -0.819525
H       1.131865      1.958666      0.796467
