13
Extracted from Q-Chem output
O      -0.271413     -1.121567      0.869560
C      -1.097164     -0.684842     -0.145925
C      -0.555085      0.673201     -0.678162
N       0.894184      0.531713     -0.622644
C       1.324600      0.078484      0.565941
O       0.938364      0.608232      1.695549
H       0.086771     -0.094004      1.717043
H      -2.128293     -0.533146      0.193811
H      -1.125032     -1.418645     -0.966374
H      -0.849223      1.491770     -0.022368
H      -0.869559      0.904865     -1.694534
H       1.297978      0.038890     -1.405297
H       2.250129     -0.500390      0.546387
