16
smiles: [C:1]([C:2]([O:3][H:16])([H:10])[H:11])([H:7])([H:8])[H:9].[C:4]1([H:12])([H:13])[C:5]([H:14])([H:15])[O:6]1
C       -2.37120900      -1.08402200       0.22390200
C       -1.90788500       0.22958800      -0.37746900
O       -0.73397700       0.72937700       0.23584800
C        2.41964600       0.59611400      -0.66164600
C        2.47852800       0.38376900       0.78004700
O        1.78142000      -0.51560900      -0.06148800
H       -1.62671300      -1.86999300       0.06923600
H       -3.30325100      -1.41580400      -0.23882400
H       -2.53559700      -0.97577000       1.29714600
H       -2.66478900       1.00163300      -0.22880000
H       -1.76250100       0.12121500      -1.46031200
H        1.75212100       1.35266000      -1.06388500
H        3.28491400       0.36031400      -1.27440500
H        1.85482000       0.98529200       1.43490400
H        3.38738200      -0.00890000       1.22661800
H       -0.03275100       0.08535700       0.12199700
