8
Extracted from Q-Chem output
O       2.052480      0.755137      0.412915
C       0.917444      0.421897      0.246987
N       0.453907     -0.906117      0.293000
O      -0.872079     -0.905175     -0.137773
C      -1.160779      0.399806     -0.213820
N      -0.219757      1.223991      0.007244
H       0.975960     -1.637403     -0.167212
H      -2.192418      0.623638     -0.451733
