16
Extracted from Q-Chem output
C      -1.170699      1.479415     -0.119893
C      -0.250691      0.308911      0.190170
C      -0.980567     -1.023449      0.042416
O      -0.306307     -2.114806      0.617152
N       0.919030      0.383937     -0.703315
C       2.163670     -0.015923     -0.519673
O       2.252670     -0.634306      0.681206
H      -0.632905      2.425611     -0.049516
H      -2.004991      1.508811      0.580874
H      -1.587018      1.395852     -1.128319
H       0.117991      0.388124      1.214927
H      -1.949002     -0.952828      0.545256
H      -1.174846     -1.199732     -1.026161
H       0.642100     -1.966820      0.555593
H       0.762913      0.835885     -1.589373
H       3.168709     -0.894195      0.787261
