16
Extracted from Q-Chem output
C      -1.222560      1.426461     -0.258549
C      -0.287504      0.317432      0.197862
C      -0.921331     -1.062564      0.015345
O      -0.354462     -2.067011      0.812978
N       0.978033      0.453427     -0.548013
C       2.143179     -0.039977     -0.187575
O       2.216150     -0.806360      0.885001
H      -0.749135      2.404603     -0.160707
H      -2.131107      1.428842      0.342609
H      -1.514387      1.286563     -1.303648
H      -0.052490      0.442414      1.258420
H      -1.976065     -0.998802      0.297143
H      -0.881887     -1.325011     -1.052718
H       0.594217     -1.905642      0.899884
H       0.967969      1.012609     -1.384500
H       3.182678     -0.578586      0.201438
