16
smiles: [C:1](=[C:2]1[C:3]([H:11])([H:13])[C:6](=[O:7])[N:5]([H:16])[C:4]1([H:14])[H:15])([H:8])[H:10].[H:9][H:12]
C        1.84890200       0.94911700      -0.64105700
C        0.65849000       0.39744100      -0.48147800
C        0.29106200      -1.04584200      -0.70074300
C       -0.58375700       1.14404500      -0.02705500
N       -1.57500500       0.09787700       0.07663200
C       -1.16911800      -1.14738000      -0.28901800
O       -1.85325900      -2.14312700      -0.28605900
H        2.70232300       0.36732300      -0.96754800
H        0.65399200      -0.54306800       2.60592000
H        2.01483900       2.00351500      -0.45095400
H        0.88701000      -1.73577800      -0.10197100
H       -0.06239400      -0.71782600       2.50238000
H        0.38564400      -1.35387700      -1.74395300
H       -0.42002300       1.64075100       0.93356100
H       -0.87586400       1.90586600      -0.75671400
H       -2.52457100       0.25489900       0.36466200
