12
Extracted from Q-Chem output
O      -1.700609     -0.808228      0.636812
C      -0.527427     -1.250157      0.348091
C      -0.503223      0.559599      0.524152
C       0.957372      0.861173      0.478919
C       0.182383      0.670125     -0.811906
C       0.094259     -0.770515     -1.069791
N       0.027580     -1.756681     -1.756696
H      -0.193310     -2.231220      0.713553
H      -1.204648      1.243147      0.977609
H       1.722414      0.150985      0.755182
H       1.154417      1.891231      0.755818
H       0.030189      1.451847     -1.541015
