11
Extracted from Q-Chem output
N       1.700553     -1.034690     -1.002486
C       0.828592     -0.917027     -0.204488
C      -0.480386     -1.042217      0.482001
O      -1.246301      0.015175     -0.007290
C      -0.468312      1.250378     -0.034582
O       0.862008      0.945139      0.023053
H       1.580225      0.215919     -0.869908
H      -0.953295     -1.977077      0.179552
H      -0.337988     -1.025057      1.568385
H      -0.770567      1.752853     -0.958552
H      -0.764352      1.847860      0.837119
