21
smiles: [C:1]([C:2][C:3]([H:12])([H:13])[H:14])([H:8])([H:9])[H:10].[C:4]([C:5]([C:6]([H:18])([H:19])[H:20])([O:7][H:21])[H:17])([H:11])([H:15])[H:16]
C       -2.17574200      -1.67422000      -0.37022800
C       -2.17852800      -0.37669800       0.31464000
C       -2.42417600       0.73716300      -0.60792700
C        1.18125400      -0.16508300       1.53386900
C        1.38501100       0.57526800       0.22814000
C        2.85058000       0.87616900      -0.04540100
O        0.83146900      -0.24535900      -0.79287400
H       -2.45419600      -2.51472300       0.26551000
H       -1.08772400      -1.78239800      -0.53792300
H       -2.65801900      -1.72952000      -1.35760800
H        0.12269800      -0.37410300       1.69120600
H       -3.51654200       0.84202300      -0.46756700
H       -2.25536800       0.55817000      -1.68031400
H       -2.00052600       1.68737800      -0.28262900
H        1.71866900      -1.11564200       1.51346400
H        1.54870000       0.42506400       2.37503300
H        0.83019900       1.52383800       0.26989100
H        3.42392500      -0.05234200      -0.08899900
H        3.27202900       1.50953300       0.73801100
H        2.97274300       1.40029400      -0.99708900
H        0.95943600       0.18854400      -1.63826900
