21
Extracted from Q-Chem output
C      -1.757873     -0.598382     -1.151387
C      -1.688428     -0.676479      0.338850
C      -2.436375      0.428300      1.012479
C       0.388979      0.279205      0.577035
C       1.581888     -0.310270     -0.135152
C       2.678119      0.724261     -0.354529
O       2.039710     -1.387159      0.666276
H      -2.743984     -1.012137     -1.395475
H      -1.029715     -1.241965     -1.645685
H      -1.720261      0.411529     -1.590405
H      -0.380602     -0.637716      0.742299
H      -3.482673      0.099967      0.990933
H      -2.401034      1.412358      0.518575
H      -2.170873      0.537699      2.064428
H       0.627629      0.554928      1.606559
H      -0.028204      1.131136      0.047719
H       1.253147     -0.690235     -1.113099
H       3.014026      1.128574      0.602375
H       2.321812      1.546510     -0.978063
H       3.539015      0.274191     -0.855784
H       2.766319     -1.822117      0.217224
