12
Extracted from Q-Chem output
O       2.335690     -0.192091     -0.036070
C       1.065732      0.107550     -0.020029
C       0.069445     -1.002821      0.002170
C      -1.240118     -0.220112      0.025411
C      -0.758068      1.208484      0.005608
C       0.592404      1.432524     -0.021706
H       0.222104     -1.639867      0.876315
H       0.186706     -1.639674     -0.877759
H      -1.882055     -0.437262     -0.833548
H      -1.841446     -0.424764      0.916330
H      -1.500759      2.005849      0.011734
H       2.797894      0.663503     -0.048756
