12
Extracted from Q-Chem output
O       2.399023     -0.143615     -0.043880
C       1.137797     -0.081107     -0.021191
C       0.055328     -1.096790      0.000354
C      -1.194944     -0.189935      0.023696
C      -0.630602      1.219067      0.009183
C       0.716813      1.277460     -0.016511
H       0.142079     -1.742710      0.876038
H       0.108429     -1.741190     -0.879266
H      -1.847033     -0.365469     -0.836862
H      -1.810316     -0.360842      0.911837
H      -1.306512      2.069524      0.020271
H       2.250840      1.080873     -0.044018
