15
Extracted from Q-Chem output
C      -0.625977      1.285493     -0.154570
C      -0.254704     -0.173356     -0.069347
C      -1.282992     -1.061388      0.583719
N       0.454199     -0.787961     -1.183132
C       1.180809     -0.560172      0.070764
C       2.197731      0.460798      0.128895
N       3.009966      1.271591      0.166706
H      -0.826864      1.689743      0.839072
H      -1.531571      1.400324     -0.754122
H       0.165961      1.884356     -0.605988
H      -2.228417     -1.000352      0.040715
H      -0.957178     -2.101169      0.576310
H      -1.461633     -0.753821      1.615933
H       0.722266     -0.094131     -1.872629
H       1.438403     -1.459955      0.617674
