15
Extracted from Q-Chem output
C      -0.635053      1.309588     -0.182729
C      -0.210053     -0.132130     -0.075320
C      -1.191498     -1.026370      0.641661
N       0.470812     -0.761941     -1.198816
C       1.233406     -0.520652     -0.008277
C       2.632918      0.391063     -0.278279
N       2.092777      1.010329      0.575873
H      -0.718245      1.759888      0.807178
H      -1.614152      1.358277     -0.665217
H       0.067764      1.905560     -0.761793
H      -2.153564     -1.013790      0.124957
H      -0.836196     -2.056066      0.667782
H      -1.347963     -0.680584      1.665234
H       0.703470     -0.110439     -1.938247
H       1.557199     -1.374511      0.567481
