18
smiles: [C:1]([O:6][H:18])([H:7])([H:8])[H:9].[C:2](=[C:3]([C:4]([H:12])([H:13])[H:14])[C:5]([H:15])([H:16])[H:17])([H:10])[H:11]
C        1.57514500       0.65134800      -2.13331700
C        0.46961200      -1.24569500       1.13354800
C       -0.51070000      -0.35991100       1.00868700
C       -1.91211100      -0.76306100       0.65259800
C       -0.29248300       1.11048300       1.21798500
O        0.36194400      -0.06423300      -2.04108900
H        2.44868400      -0.01054400      -2.13511100
H        1.68929600       1.38182200      -1.32430000
H        1.55617500       1.19158300      -3.07914100
H        1.47759600      -0.94287300       1.39328700
H        0.29787500      -2.30516500       0.98097700
H       -2.61293600      -0.45881200       1.43542200
H       -2.00031000      -1.84053700       0.51410500
H       -2.23556900      -0.27009700      -0.26870700
H       -0.92828700       1.48330700       2.02629500
H       -0.56203300       1.67355600       0.31973700
H        0.74500100       1.33444000       1.46531800
H        0.35455900      -0.55276900      -1.21761400
