18
Extracted from Q-Chem output
C       1.730077     -0.094699     -1.393168
C       0.830237     -0.685938      0.731322
C      -0.359572      0.022892      0.342832
C      -1.658859     -0.770177      0.318086
C      -0.530457      1.405059      0.945277
O      -0.072599      0.368661     -1.210143
H       1.582335      0.234968     -2.422230
H       2.064110     -1.117758     -1.328375
H       2.334025      0.595219     -0.826571
H       1.483973     -0.216353      1.459031
H       0.767071     -1.767651      0.816480
H      -1.985105     -0.952832      1.342894
H      -1.513782     -1.744363     -0.156069
H      -2.463914     -0.240947     -0.198040
H      -0.786615      1.313488      2.002255
H      -1.317528      1.969876      0.443450
H       0.399576      1.969658      0.869350
H      -0.534891     -0.284672     -1.753108
