16
Extracted from Q-Chem output
C      -0.992959     -0.326546      1.215037
C      -0.173808     -0.047997     -0.035213
C      -0.315264     -1.150286     -1.072570
C      -0.257394      1.392295     -0.578125
O       1.139293      1.615125     -0.244029
C       1.263088      0.344150      0.251222
N       2.243730     -0.240769      0.755033
H      -0.877175      0.468413      1.953731
H      -2.053251     -0.416513      0.966765
H      -0.667122     -1.260930      1.674132
H       0.033420     -2.098667     -0.661135
H      -1.361037     -1.267133     -1.366876
H       0.273099     -0.936569     -1.966598
H      -0.901839      2.076390     -0.024760
H      -0.420241      1.493737     -1.651900
H       3.067460      0.355301      0.785285
