16
Extracted from Q-Chem output
C      -1.403089     -0.289159      1.265210
C      -0.263123      0.378006      0.631615
C       0.352977     -1.142517     -0.916029
C      -0.300480      1.480516     -0.339456
O       0.984203      1.246236     -0.881789
C       1.231962     -0.003400     -0.214201
N       2.393532     -0.393589      0.146991
H      -1.684638      0.401217      2.072902
H      -2.288223     -0.427881      0.633919
H      -1.118552     -1.226701      1.741082
H       0.476042     -2.052940     -0.337339
H      -0.702242     -0.958226     -1.114861
H       0.853268     -1.230759     -1.878914
H      -0.335331      2.416570      0.239182
H      -1.079268      1.517542     -1.111639
H       3.017679      0.400480      0.240283
