13
Extracted from Q-Chem output
C       0.400100     -1.153446      0.347991
C      -0.257573     -2.044243     -0.374320
O      -1.560292      1.397503     -0.968648
C      -0.976734      1.784063      0.016288
N       0.206637      1.297832      0.458136
C       0.864336      0.173023     -0.184431
H       0.575102      1.661900      1.318226
H       0.619277     -1.357120      1.393770
H      -0.505500     -1.851533     -1.412522
H      -0.583090     -2.988142      0.045644
H      -1.359999      2.602459      0.652343
H       1.941670      0.287862     -0.042891
H       0.657412      0.237917     -1.252784
