16
Extracted from Q-Chem output
C       2.575068     -0.584323     -0.040606
C       1.378697      0.332366      0.032406
C       0.084162     -0.344667      0.100904
C      -1.043905      0.368558      0.072419
C      -2.575769     -0.425276     -0.182475
C      -1.977427      1.259449     -0.116365
N       1.438601      1.605441      0.037607
H       2.590313     -1.259225      0.818521
H       2.527173     -1.202255     -0.940346
H       3.505342     -0.016932     -0.054555
H       0.038842     -1.422435      0.168792
H      -3.555524     -0.026578      0.074829
H      -2.361782     -1.201544      0.557125
H      -2.574280     -0.803212     -1.197247
H      -2.452179      1.794490      0.698798
H       2.402710      1.919932     -0.031922
