13
smiles: [C:1]([C:2](=[O:3])[H:11])([H:7])([H:8])[H:9].[C:4](=[O:5])([N:6]([H:12])[H:13])[H:10]
C       -2.56863000       0.89315900      -0.42677000
C       -1.10010600       0.59698800      -0.38019800
O       -0.32875000       1.09392500       0.39289500
C        2.28374100      -1.53975700       0.21026300
O        3.15112600      -2.32916900      -0.06945200
N        2.28565200      -0.23261300      -0.14161100
H       -2.83127400       1.27350000      -1.41746800
H       -2.84038700       1.61863100       0.33739500
H       -3.13065400      -0.03364700      -0.28484900
H        1.38780400      -1.82143000       0.79327500
H       -0.74133700      -0.13952600      -1.13039500
H        3.05727900       0.13132800      -0.67299800
H        1.53641900       0.37902600       0.12079100
