14
Extracted from Q-Chem output
C      -1.802427      0.517622      0.092563
C      -0.739434     -0.556617     -0.100764
C       0.644190      0.021886     -0.217358
O       0.754327      0.819158     -1.340193
C       1.819061     -0.617734      0.366895
O       1.218445      0.546787      0.955635
H      -1.600850      1.101628      0.992203
H      -2.790311      0.066543      0.195303
H      -1.825565      1.199443     -0.757515
H      -0.939302     -1.137476     -1.004702
H      -0.742791     -1.252093      0.740537
H       1.726465     -1.530860      0.948385
H       2.793751     -0.452790     -0.085427
H       1.546632      1.355601     -1.255795
