14
Extracted from Q-Chem output
C      -1.953320      0.419239     -0.178996
C      -0.769774     -0.492254      0.094285
C       0.566602      0.057712     -0.209495
O       0.647860      1.229776     -0.734169
C       1.852722     -0.574861      0.159514
O       2.245165      0.499803      0.912287
H      -1.874553      1.343591      0.392784
H      -2.881353     -0.078366      0.102127
H      -2.014981      0.684277     -1.234445
H      -0.841752     -1.443642     -0.447074
H      -0.713992     -0.783016      1.149680
H       1.677801     -1.512740      0.713460
H       2.480839     -0.817095     -0.721890
H       1.583061      1.465556     -0.425290
