12
Extracted from Q-Chem output
C      -1.458823     -0.414067     -0.475218
C       0.041260     -0.316459     -0.455530
C       0.556089      0.876319      0.283857
O       2.035190      1.074611      0.315387
C       1.429826      0.748505      1.436889
O       1.675914      0.531275      2.570071
N       0.869251     -1.120067     -0.964083
H      -1.783519     -1.333422     -0.960466
H      -1.855790     -0.395102      0.542677
H      -1.890883      0.436642     -1.007694
H       0.010298      1.806287      0.147765
H       0.393799     -1.892820     -1.425242
