12
Extracted from Q-Chem output
C      -1.539386     -0.399558     -0.718095
C      -0.208533     -0.134383     -0.112007
C       0.350398      1.125401      0.233948
O       1.799641      1.120828     -0.082227
C       1.679405      0.333734      0.959159
O       2.248090      0.136261      1.974165
N       0.680998     -1.006083      0.258303
H      -1.496298     -0.199388     -1.791249
H      -1.864015     -1.425892     -0.554092
H      -2.279739      0.279676     -0.292765
H      -0.096164      2.104272      0.276239
H       0.748213     -1.933163     -0.142964
