14
Extracted from Q-Chem output
C      -1.890110      0.004433     -1.464417
C      -0.693159     -0.319447     -0.591213
N       0.112599      0.875656     -0.358433
C       1.234310      1.008114      0.334603
N       1.638933     -0.161734      0.877634
C       3.719629     -0.288745      2.254355
N       2.752483     -0.210071      1.610209
H      -1.570689      0.384103     -2.436924
H      -2.526439      0.754684     -0.990895
H      -2.492690     -0.887659     -1.633301
H      -0.078407     -1.086119     -1.076106
H      -1.034103     -0.724018      0.368535
H      -0.226472      1.723186     -0.779723
H       1.182950     -1.062808      0.807583
