11
Extracted from Q-Chem output
O       3.131248      0.229599      0.701139
C       2.032834      0.593859      0.620265
N      -0.144288     -1.319451     -0.360832
C      -1.048310     -0.208062     -0.195520
C      -0.396991      1.033578      0.334015
C       0.886930      1.200277      0.601222
H      -0.639366     -2.154258     -0.637941
H      -1.830122     -0.488998      0.519678
H      -1.584481      0.092533     -1.112043
H      -1.090093      1.861050      0.486611
H       0.558571     -1.125552     -1.061191
