15
smiles: [C:1]([H:8])([H:9])([H:10])[H:13].[C:2](\[O:3][H:12])(=[C:4](\[O:5][C:6](=[O:7])[H:15])[H:14])[H:11]
C       -2.59167000       0.85208000      -1.74319600
C        0.38686800       0.60254500       0.67793900
O        1.10927700       1.26828100       1.57967000
C        0.59263300      -0.56709200       0.07574800
O        1.67383700      -1.45156600       0.16124700
C        2.45434500      -1.58429300       1.21666500
O        2.41791800      -0.94837100       2.23769800
H       -2.70801200       0.08428300      -0.97982100
H       -3.34099500       0.70616800      -2.51981800
H       -2.72170900       1.83475100      -1.29224300
H       -0.51710000       1.12612300       0.38666500
H        1.73061600       0.64101600       1.99573000
H       -1.59713000       0.78263900      -2.18118400
H       -0.11560200      -0.92969700      -0.65143500
H        3.17381100      -2.38973900       1.03181900
