15
Extracted from Q-Chem output
C      -2.226047      0.665091     -1.506792
C      -0.112067      1.005800      0.559945
O       0.650455      1.025585      1.527900
C      -0.053648      0.115637     -0.531058
O       1.585138     -1.712357      0.227685
C       2.451439     -1.638646      1.069168
O       2.598443     -0.670617      1.932874
H      -2.649059      0.235975     -0.605543
H      -2.516053      0.085560     -2.380485
H      -2.510388      1.710886     -1.608463
H      -0.834456      1.832470      0.439083
H       1.860893     -0.003255      1.793399
H      -1.086706      0.672545     -1.543224
H      -0.381532     -0.912886     -0.553117
H       3.222452     -2.412508      1.187695
