7
Extracted from Q-Chem output
O       1.531206     -0.627073      0.748258
N       0.296683      0.978864     -1.095698
C      -0.541035      0.879975     -0.189104
C      -0.146945     -0.414593     -0.704483
N       0.797958     -1.243375      0.032965
H      -1.113713      1.476089      0.505382
H      -0.740693     -0.983817     -1.407781
