7
Extracted from Q-Chem output
O       1.584779     -0.064380     -0.301121
N       0.873766      1.079014     -0.263129
C      -0.372289      0.723274     -0.273850
C      -0.429917     -0.690657     -0.319818
N       0.783098     -1.146580     -0.335452
H      -1.162340      1.455412     -0.248114
H      -1.277097     -1.356083     -0.341135
