7
Extracted from Q-Chem output
O       0.061424     -0.927182      0.223679
C       1.031969     -0.096060     -0.205265
N       0.609962      1.085670     -0.456106
N      -0.752253      1.070048     -0.179959
C      -1.017417     -0.119680      0.209863
H       2.032666     -0.484403     -0.295606
H      -1.966351     -0.528393      0.516012
