7
Extracted from Q-Chem output
O       0.492851     -1.177042      0.219438
C       1.127158     -0.215033     -0.188750
N       0.601412      1.030560     -0.448998
N      -0.666318      0.898606     -0.157857
C      -1.430747      0.105517      0.225909
H       2.200299     -0.262803     -0.388525
H      -2.324657     -0.379804      0.551400
