16
Extracted from Q-Chem output
C       2.839259     -0.016432     -1.277935
N       1.502542     -0.133724     -0.740659
C       1.222713      0.468090      0.306830
O      -0.037379      0.411502      0.882352
C      -1.045994     -0.074408      0.188480
C      -2.213298     -0.638015      0.874598
O      -3.313056     -0.702289      0.188264
H       3.272647     -1.013255     -1.362746
H       2.778201      0.400392     -2.283663
H       3.500837      0.611666     -0.670863
H       1.868692      1.093005      0.922781
H      -2.345543      1.263216     -0.578839
H      -0.847765     -0.340330     -0.845814
H      -1.626120     -1.634699      0.861672
H      -2.237413     -0.337129      1.939806
H      -2.948681      0.721635     -0.462853
