14
Extracted from Q-Chem output
C      -2.303683     -0.648724     -0.160767
N      -0.216857     -0.139872     -0.096170
C      -0.537225      0.836359      0.701826
O      -1.746482      0.972548      0.961262
C       1.042992     -0.500199     -0.546423
O       1.170503     -1.446044     -1.286205
C       2.233719      0.319125     -0.091056
H      -3.218973     -0.077647     -0.115015
H      -2.012209     -0.954007     -1.153048
H      -2.193777     -1.410915      0.595606
H       0.188011      1.521772      1.148691
H       2.123570      1.363556     -0.388541
H       3.130873     -0.092605     -0.545682
H       2.333092      0.285086      0.995669
