14
Extracted from Q-Chem output
C      -2.018019      0.582940     -0.773728
C      -0.611877      0.450337     -0.288026
C       0.270487      1.468855     -0.165365
N       1.472921      0.748927      0.350381
C       1.323334     -0.520446      0.510593
O       2.215306     -1.394243      0.949291
C      -0.051708     -0.893348      0.119165
H      -2.203303     -0.016203     -1.671751
H      -2.214940      1.626967     -1.015745
H      -2.747185      0.265934     -0.020255
H       3.054656     -0.971713      1.158456
H       2.325328      1.250711      0.548414
H      -0.562100     -1.365413      0.965492
H      -0.018952     -1.637439     -0.683913
