8
Extracted from Q-Chem output
C      -1.018884     -0.145796     -0.031281
O       0.278605     -0.745046     -0.068996
C       1.303623      0.097657      0.030810
O       1.222392      1.285648      0.141388
H      -1.140067      0.554451     -0.857610
H      -1.164279      0.385558      0.909117
H      -1.726489     -0.965380     -0.120569
H       2.245098     -0.467093     -0.002859
