19
smiles: [C:1]([C@@:2]1([H:11])[O:3][C:4]([H:12])([H:13])[C:5]1=[C:7]([H:18])[H:19])([H:8])([H:9])[H:10].[C:6]([H:14])([H:15])([H:16])[H:17]
C        1.98348200       0.10734800      -1.51966900
C        0.91674700       0.09619700      -0.45177300
O        0.75945000       1.37351200       0.20817900
C       -0.63793600       1.43911100      -0.12314000
C       -0.52769000       0.14913100      -0.88980600
C       -0.70749300      -0.81969800       2.73111500
C       -1.31062300      -0.58837400      -1.64942600
H        2.96296600       0.28928100      -1.07437900
H        2.01114400      -0.85751800      -2.03091600
H        1.78037600       0.88684200      -2.25496000
H        1.11810700      -0.68822100       0.28813700
H       -0.88459800       2.33047300      -0.70753000
H       -1.27228300       1.40232900       0.76857100
H       -0.00271800      -0.01944700       2.51100300
H       -0.18210100      -1.64433400       3.21058800
H       -1.48364200      -0.44821800       3.39846600
H       -1.16102300      -1.16976900       1.80507500
H       -0.94715800      -1.49976000      -2.10988800
H       -2.34108000      -0.31239700      -1.83966000
