19
Extracted from Q-Chem output
C       1.715633      0.032731     -1.456910
C       1.073511      0.169493     -0.097461
O       0.901283      1.549805      0.295122
C      -0.522218      1.475098      0.138806
C      -0.444286     -0.020173     -0.083054
C      -0.630454     -0.629081      1.926304
C      -1.272445     -0.831585     -0.904296
H       2.721682      0.453001     -1.425062
H       1.785380     -1.019385     -1.740293
H       1.139541      0.556981     -2.219832
H       1.628558     -0.387788      0.658016
H      -0.862734      1.995897     -0.762730
H      -1.067568      1.837632      1.009159
H       0.013423      0.111822      2.392684
H      -0.234300     -1.637093      2.069333
H      -1.653015     -0.546598      2.305550
H      -1.144389     -0.909772      0.544436
H      -0.864632     -1.720562     -1.362481
H      -2.235848     -0.458561     -1.218656
