12
Extracted from Q-Chem output
O       1.106739      0.494522      0.988232
C       1.579105      0.232790     -0.154192
C       1.066953     -0.756967     -0.959214
C      -0.767996     -0.356606      0.542500
C      -1.568783      0.827071      0.519248
O      -1.740215     -0.339855     -0.357423
H       2.427114      0.844750     -0.496480
H       0.739415     -1.677205     -0.490044
H       1.315497     -0.823921     -2.011295
H      -0.593437     -1.172974      1.223394
H      -2.369464      0.975026      1.234703
H      -1.167448      1.701421      0.023491
