10
Extracted from Q-Chem output
C      -0.332198     -1.851389     -0.661107
C      -0.699561      0.944298      0.608032
N       0.637170      0.927537      0.057445
C       1.242946     -0.113350     -0.239751
O       0.752667     -1.431452     -0.073923
H      -1.081334     -0.031163      0.928256
H      -0.672277     -1.020622     -1.333253
H      -1.378726      1.359689     -0.137858
H      -0.702329      1.621553      1.461907
H       2.262552     -0.127529     -0.611110
