14
Extracted from Q-Chem output
C      -0.427720     -2.043756     -0.455551
C      -0.412725      0.712003      1.528325
C       0.034105      1.290397      0.231232
N      -0.152311      2.629208      0.014098
C       0.532439      0.320049     -0.550312
C       0.430245     -0.967569      0.178861
O      -0.173193     -0.563593      1.443509
H      -1.424371     -1.656196     -0.669602
H       0.024717     -2.377707     -1.390482
H      -0.515137     -2.902902      0.209799
H       0.402012      3.085022     -0.687319
H      -0.323667      3.168875      0.845220
H       0.942038      0.401488     -1.547382
H       1.410231     -1.376124      0.447145
