14
Extracted from Q-Chem output
C      -0.768456     -1.510645     -0.253959
C      -0.509326     -0.034590      0.970623
C       0.100178      1.047068      0.020184
N      -0.487356      2.258429     -0.096713
C       1.139758      0.385032     -0.495176
C       0.899591     -0.864792      0.298632
O       0.654666     -0.515419      1.616680
H      -1.629539     -0.966814     -0.631866
H      -0.279821     -1.924617     -1.142669
H      -1.089256     -2.309955      0.409745
H       0.010713      3.015456     -0.527350
H      -1.166132      2.502918      0.603398
H       1.927462      0.607362     -1.196880
H       1.388653     -1.823265      0.189608
