14
Extracted from Q-Chem output
C      -1.623240      0.091745      0.388551
C      -0.619106     -0.675185     -0.449688
C       0.850925     -0.222068     -0.533815
C       1.346943      0.934941      0.288202
C      -0.050285     -1.951295      0.175370
O       1.192272     -1.515427      0.060100
H      -1.264442      0.257865      1.405198
H      -1.853335      1.062617     -0.054493
H      -2.550819     -0.477509      0.458876
H      -1.043110     -0.905874     -1.431335
H       1.259806     -0.184660     -1.546102
H       0.979741      1.870367     -0.138947
H       2.437315      0.963998      0.285873
H       1.005424      0.867907      1.321188
