13
Extracted from Q-Chem output
N      -2.076145      0.644974     -0.363857
C      -0.797228      0.196695     -0.131857
C      -0.268668     -0.996356     -0.508276
N       1.111164     -0.996641     -0.064416
C       1.375218      0.364142      0.407607
O       2.653973      0.469187      0.341119
C       0.216623      1.057295      0.471901
H      -2.756423     -0.050164     -0.617316
H      -2.422779      1.329235      0.284989
H      -0.731037     -1.883692     -0.904286
H       1.242936     -1.636218      0.718016
H       2.308941     -0.655732     -0.355861
H       0.108307      2.110563      0.670691
