19
Extracted from Q-Chem output
C      -2.650122      0.510612      0.220683
C      -1.953108     -0.618092     -0.476339
C      -0.037087     -0.203894     -0.922578
C       1.125278     -0.070283      0.002870
C       2.542182     -0.471590     -0.047431
C       2.142025      0.970091      0.233027
C      -0.056342     -0.532810      0.716974
H      -3.710034      0.300162      0.027688
H      -2.445898      1.481510     -0.240200
H      -2.544880      0.615730      1.311600
H      -2.003451     -1.531666      0.124658
H       0.034365     -1.016780     -1.628388
H      -0.383176      0.733845     -1.332621
H       2.981424     -0.689782     -1.013568
H       2.947001     -1.048865      0.775413
H       2.321069      1.700135     -0.547481
H       2.282443      1.342522      1.240982
H      -0.535314      0.147576      1.405758
H      -0.081897     -1.576606      0.997935
