13
Extracted from Q-Chem output
O       2.007881      0.696861     -1.446649
C       1.175044      0.223841     -0.735095
C       0.719485     -1.020356     -0.232472
C      -0.746891     -0.913075      0.169614
C      -0.946926      0.620402      0.305020
N       0.435322      1.090434      0.354025
H       1.139175     -1.950546     -0.587686
H       0.985273      0.041172      0.838455
H      -1.427997     -1.313098     -0.583897
H      -0.958865     -1.436443      1.105798
H      -1.458488      1.029183     -0.570673
H      -1.494069      0.907938      1.201898
H       0.631016      2.081550      0.355539
