16
Extracted from Q-Chem output
O      -0.732727      0.227363      2.263928
C      -0.703214     -0.172464     -1.237172
C      -0.504679     -0.443743     -2.518224
C       0.308248     -0.510342      1.644938
C       0.964162      0.366888      0.597104
C       0.002678      0.903189     -0.469687
H      -1.162221     -0.326895      2.915877
H      -1.428457     -0.763416     -0.682341
H      -1.041934     -1.238248     -3.022110
H       0.201047      0.126727     -3.114102
H      -0.088716     -1.423214      1.182389
H       1.059787     -0.814344      2.384089
H       1.440517      1.212866      1.100225
H       1.758491     -0.212912      0.117308
H      -0.738520      1.539139      0.021332
H       0.564243      1.535074     -1.162442
