14
Extracted from Q-Chem output
C       1.205825      0.587525      1.187545
C       0.060070      0.354964      0.254579
C      -0.525068     -1.139569     -1.199095
C      -0.622110     -1.012289      0.225500
C      -0.498072      1.311016     -0.581501
O      -1.150481      1.044011     -1.610264
H       0.973644      0.274805      2.211373
H       2.103850      0.042243      0.878186
H       1.473112      1.645456      1.205984
H      -1.378986     -1.193060     -1.855076
H       0.452862     -1.282112     -1.639924
H       0.030418     -1.699400      0.766580
H      -1.631744     -1.038216      0.633274
H      -0.399013      2.365530     -0.276209
