12
Extracted from Q-Chem output
C       1.185344     -0.531002     -0.037109
C      -0.178505     -0.508484      0.620586
C      -0.465547      0.994432      0.553197
O      -1.824071      0.802535      0.073041
C      -1.046606     -0.219952     -0.607815
C       0.060267      0.832831     -0.901904
H       1.435613     -1.405844     -0.634823
H       2.026695     -0.166164      0.549585
H      -0.460203     -1.166822      1.449188
H      -0.273608      1.783591      1.276172
H      -1.558130     -0.896952     -1.287832
H       1.182413      0.423778     -1.036081
