17
Extracted from Q-Chem output
O       0.441022     -1.560309      1.151302
C       0.676315     -1.033338     -0.148378
C       1.531420      0.226998     -0.002257
C       0.546930      1.406571      0.057142
C      -0.664341      0.939877     -0.742619
C      -0.585910     -0.560337     -0.867258
C      -1.658504      0.079370     -0.031518
H       1.190482     -1.788873     -0.753365
H       2.193773      0.156715      0.861508
H       2.153501      0.323593     -0.895471
H       0.979339      2.313360     -0.367475
H       0.270868      1.636332      1.088846
H      -1.007081      1.540297     -1.575566
H      -0.877367     -1.060440     -1.782211
H      -0.239412     -2.232992      1.084706
H      -2.669549      0.044952     -0.416998
H      -1.577983     -0.001709      1.045699
