17
Extracted from Q-Chem output
O       0.491352     -1.501706      1.258268
C       0.888231     -1.112967      0.057777
C       1.606368      0.227497     -0.061074
C       0.543564      1.302881      0.137034
C      -0.665507      0.814858     -0.659656
C      -0.666369     -0.692609     -0.794544
C      -1.746855      0.091256      0.016456
H       1.278740     -1.888980     -0.623049
H       2.395586      0.255112      0.693404
H       2.061125      0.319792     -1.051399
H       0.873208      2.283574     -0.206895
H       0.290167      1.392007      1.194190
H      -0.923398      1.351480     -1.564679
H      -0.952427     -1.182990     -1.714018
H      -0.518666     -1.362897      0.257145
H      -2.739915      0.068242     -0.412191
H      -1.697369     -0.011940      1.094999
