12
Extracted from Q-Chem output
C      -1.515230     -0.798023      0.380870
C       0.757409     -0.088870     -0.625186
C      -0.120576      1.053313     -0.439800
O      -0.354902      0.021556      0.581580
C       2.073273     -0.073522     -0.037324
O       3.019145      0.484223     -0.555408
H      -1.355699     -1.705783      0.957586
H      -2.384830     -0.255478      0.753135
H      -1.614413     -1.041432     -0.676504
H       0.217428      1.975142      0.031248
H      -0.979373      1.187520     -1.095407
H       2.196120     -0.698839      0.873062
