10
Extracted from Q-Chem output
N      -1.176715     -0.946198     -0.703578
C      -0.257749     -0.022757     -0.113194
C       1.154353     -0.239766     -0.117687
C       2.332224     -0.470715     -0.145261
C      -0.749164      1.059980      0.464987
N      -1.187683      2.106699      0.888498
H      -1.029835     -1.010541     -1.702222
H      -1.061999     -1.870006     -0.308913
H      -1.447624      2.133370      1.870643
H       3.377973     -0.666278     -0.169952
