11
Extracted from Q-Chem output
N      -1.812728     -0.049734     -0.314697
C      -0.459978      0.060579      0.012380
C       0.599355     -0.844480     -0.212332
C       1.723025     -0.055629     -0.154786
N       1.427675      1.232643      0.109640
N       0.120348      1.360852      0.189731
H      -2.317680      0.806685     -0.141493
H      -2.275136     -0.841450      0.103329
H       0.523176     -1.901605     -0.406100
H       2.755442     -0.355475     -0.263881
H      -0.269713      0.521801      1.167026
