13
smiles: [O:1]=[C:2]1[C:3]([H:10])([H:11])[C:4]1([H:9])[H:12].[O:5]=[C:6]([O:7][H:8])[H:13]
O       -0.87792800       1.30606100       0.07568900
C       -1.14139100       0.18325300      -0.21812300
C       -2.10174900      -0.74850200      -0.81167200
C       -0.72863300      -1.22114400      -0.23584300
O        2.14366800       0.12824100      -0.77530500
C        2.53798400       0.93169800       0.01516600
O        1.75779700       1.73815300       0.74122900
H        0.83974600       1.54681900       0.50457700
H       -0.74040000      -1.77738900       0.69415700
H       -2.99412400      -1.00257200      -0.25169900
H       -2.22203200      -0.75415600      -1.88880100
H        0.03189500      -1.52967400      -0.94346900
H        3.59351400       1.11755300       0.25309900
