16
smiles: [C:1]([O:4][C:5]([C:6]([O:7][H:16])([H:14])[H:15])([H:12])[H:13])([H:8])([H:9])[H:10].[N:2]#[C:3][H:11]
C        1.24427200       1.03353800      -1.31204700
N        1.31721800      -2.26926600       1.13802200
C        1.61033500      -1.20358100       1.43176300
O        0.45344000       0.30087400      -0.41380300
C       -0.91204000       0.64380200      -0.46913700
C       -1.65619500      -0.30600200       0.43993600
O       -1.52882100      -1.64328700       0.01441000
H        0.93287500       0.86273700      -2.35056500
H        1.19134200       2.11008200      -1.10469000
H        2.27432000       0.70096400      -1.19091100
H        1.88418200      -0.20815900       1.70618600
H       -1.06409200       1.68352900      -0.14421900
H       -1.28506600       0.54552800      -1.49857200
H       -1.28907400      -0.18282100       1.46723500
H       -2.72091300      -0.06554900       0.42958200
H       -0.58924000      -1.81210100      -0.09621000
