13
Extracted from Q-Chem output
C      -1.463009      0.405687     -0.688924
C      -0.750656     -0.509275      0.300872
C       0.885898      0.242171      1.829427
C       0.676531     -0.063867      0.588945
C       1.713349     -0.004450     -0.496477
H      -1.507923      1.427142     -0.308148
H      -2.484218      0.059913     -0.857229
H      -0.956742      0.425177     -1.655438
H      -0.703270     -1.532761     -0.083425
H      -1.313690     -0.555140      1.236536
H       2.688560      0.276107     -0.101193
H       1.801682     -0.980598     -0.978479
H       1.430142      0.726684     -1.255386
