12
smiles: [H:9][H:12].[O:1]([C:2](=[C:3]1[N-:4][N+:5]([H:11])=[C:6]=[N:7]1)[H:10])[H:8]
O       -1.97815400      -0.44904200      -0.30878500
C       -1.36302400       0.18585600       0.64020100
C       -0.01400900       0.45593900       0.63084400
N        0.72720300       0.04236800      -0.42620700
N        1.89341100       0.47261900      -0.07011000
C        1.96530400       1.15784700       1.18079800
N        0.69237300       1.11565600       1.58958200
H       -1.33169500      -0.68668700      -0.99666000
H       -0.96760000      -1.83768000      -2.76115400
H       -1.99579700       0.49925400       1.46348800
H        2.67891800       0.30640900      -0.68171700
H       -0.33353900      -1.55376300      -2.49328300
