12
Extracted from Q-Chem output
O      -2.140809      0.481922     -0.794023
C      -1.296259     -0.136232      0.041060
C      -0.113629      0.488851      0.613460
N       0.567397      1.116017     -0.413072
N       1.630227      0.417194     -0.478976
C       1.725227     -0.652489      0.493777
N       0.618731     -0.424292      1.245464
H      -1.683480      1.206587     -1.235564
H      -0.422092     -1.045747     -0.650044
H      -1.791436     -0.885418      0.650310
H       2.313956      0.608624     -1.198623
H       0.602173     -1.343755     -0.340580
