11
Extracted from Q-Chem output
N      -1.141614      1.074819      0.251158
C      -1.227926     -0.270071      0.179284
O      -2.262236     -0.885475      0.308165
C       0.078828     -1.023987     -0.084074
C       1.283686     -0.215704     -0.216887
C       2.261993      0.467043     -0.322717
H      -1.981548      1.598189      0.419564
H      -0.264252      1.549509      0.139618
H       0.192998     -1.739534      0.732478
H      -0.082362     -1.612829     -0.989209
H       3.142433      1.058040     -0.417380
