10
Extracted from Q-Chem output
N       2.037052     -0.404878     -0.005612
C       0.829609     -0.088291      0.001427
C      -0.337028     -1.004201      0.213912
C      -1.545829     -0.284313      0.384681
C      -1.069762      1.135245      0.013990
O      -1.717520      2.118728     -0.085542
O       0.315568      1.168389     -0.157733
H       2.643614      0.401510     -0.136842
H      -0.172255     -2.018693      0.560462
H      -0.924159     -1.114289     -0.789968
