14
Extracted from Q-Chem output
C      -0.268335      1.384520     -0.376047
C      -0.167665     -0.556713      0.265886
C      -0.283627     -1.302196     -1.019318
O      -1.104236     -0.907886      1.142203
C       0.791268      0.388602      0.582695
C       1.779828      0.930238      1.248607
H      -0.011538      2.280868      0.179732
H       0.100661      1.416180     -1.397219
H      -1.351028      1.246083     -0.361991
H      -0.069029     -2.350227     -0.798920
H       0.435931     -0.941450     -1.747776
H      -1.296406     -1.248604     -1.422386
H      -0.885848     -0.503898      1.992438
H       2.368162      0.148828      1.749231
