9
Extracted from Q-Chem output
O      -1.577585     -0.016742     -0.879225
C      -1.872530      0.373891      0.303514
C      -0.323659     -0.065871     -0.142655
N       0.632865      0.804716     -0.351945
C       1.712850      0.062028      0.020893
N       1.491886     -1.161739      0.378460
O       0.078233     -1.275633      0.231136
H      -2.874523      0.823362      0.421864
H       2.720644      0.451467      0.016683
