17
smiles: [H:8][H:11].[O:1]=[C:2]([C@:3]1([H:9])[C:4]([H:12])([H:13])[C:5]([H:14])([H:15])[O:6][C:7]1([H:16])[H:17])[H:10]
O        2.01240100      -0.43905200       0.91043300
C        1.61910100      -0.73073700      -0.18447000
C        0.55117500       0.00643200      -0.95628700
C       -0.11669600       1.13715000      -0.17148100
C       -1.42619300       0.49604800       0.26633300
O       -1.79769400      -0.33356200      -0.81965200
C       -0.62496700      -0.95126500      -1.29891800
H        0.72297200       0.23865000       3.10109700
H        1.02496000       0.36521100      -1.87411600
H        2.03900100      -1.61593400      -0.70885900
H        0.22370300       0.40753400       3.62700200
H        0.49931400       1.46340200       0.66541100
H       -0.31395800       1.98836400      -0.82316200
H       -2.23455700       1.20542200       0.43895400
H       -1.28235500      -0.10323100       1.17605800
H       -0.74365100      -1.11811400      -2.36952100
H       -0.48506700      -1.92861400      -0.81460400
