17
Extracted from Q-Chem output
O       2.533628      0.144443      0.613241
C       1.742189     -0.475375     -0.219113
C       0.309765     -0.223005     -0.078543
C      -0.283220      1.130160      0.157595
C      -1.774930      0.877385     -0.061247
O      -1.824725     -0.183706     -1.003715
C      -0.774319     -1.064167     -0.675222
H       1.507848     -0.279181      1.741671
H       1.700916      0.011269     -1.250515
H       1.940349     -1.543151     -0.441558
H       0.734808     -0.568479      1.829576
H      -0.013610      1.555811      1.119892
H       0.110026      1.799718     -0.614410
H      -2.308175      1.726991     -0.483378
H      -2.264755      0.578095      0.874388
H      -0.451999     -1.607638     -1.565669
H      -1.090627     -1.804837      0.074567
