11
Extracted from Q-Chem output
C       1.989301     -0.769765      0.869091
C       1.053487     -0.597092      0.133550
C       0.328323      0.541732     -1.143121
C      -0.281451     -0.676060     -0.602084
N      -1.394412     -0.288135      0.180643
N      -1.434550      1.023220      0.302696
C      -0.449530      1.517814     -0.413406
H       2.845430     -0.889819      1.490864
H      -0.355117     -1.612858     -1.143672
H      -1.964831     -0.853198      0.784576
H      -0.328905      2.590219     -0.454507
