10
Extracted from Q-Chem output
O       1.267942      1.583683      0.062581
C       1.180453      0.404974     -0.091276
C       0.278548     -0.620757     -0.326105
O      -1.002863     -0.413303     -0.761299
C      -1.820896      0.339515      0.023948
O      -1.547946      0.755172      1.100122
H       2.219774     -0.332042      0.227313
H       0.662100     -1.609518     -0.537391
H       1.489922     -0.617084      0.846884
H      -2.773093      0.474363     -0.502325
