13
Extracted from Q-Chem output
O      -0.819541      1.403473      0.533663
C      -1.171737      0.049669      0.261631
C      -0.144124     -0.540400     -0.683123
C       1.272373     -0.535555     -0.120601
O       1.851364      0.748715     -0.081192
H      -1.409583      1.758140      1.199203
H      -2.170239      0.002695     -0.188192
H      -1.190495     -0.528351      1.194669
H      -0.155090      0.009818     -1.628229
H      -0.440753     -1.570932     -0.901384
H       1.267346     -0.995220      0.880192
H       1.921080     -1.147257     -0.751129
H       1.189400      1.345205      0.284493
