13
Extracted from Q-Chem output
O      -0.735851      1.499446      0.243469
C      -1.135361      0.125796      0.285111
C      -0.245823     -0.624987     -0.692208
C       1.160758     -0.941198     -0.279870
O       1.852390      0.619967      0.365690
H      -1.185557      1.985999      0.935489
H      -2.189112      0.043116     -0.004419
H      -1.017056     -0.276964      1.297567
H      -0.279078     -0.098026     -1.651499
H      -0.679541     -1.616438     -0.878229
H       1.178814     -1.477016      0.672091
H       2.166850      0.096014     -0.483630
H       1.151075      1.255494      0.144208
