13
Extracted from Q-Chem output
O      -2.075349     -0.219976      0.416518
C      -0.891277     -0.847331     -0.074034
C       0.302258      0.083451     -0.095510
C       0.182189      1.391124     -0.375354
O      -0.962721      2.033986     -0.629690
C       1.590366     -0.478714      0.140593
C       2.656098     -0.994487      0.340813
H      -1.959397     -0.051837      1.355066
H      -0.654996     -1.738537      0.512474
H      -1.140400     -1.176249     -1.085826
H      -1.698900      1.427488     -0.440514
H       1.048760      2.040396     -0.415335
H       3.606807     -1.439768      0.513880
