19
smiles: [C:1]([C:2](/[C:3](=[C:5](\[C:4]([H:14])([H:15])[H:19])[H:16])[H:13])([H:11])[H:12])([H:8])([H:9])[H:10].[C:6](=[O:7])([H:17])[H:18]
C       -2.02878200       0.12613100       1.12628300
C       -1.43759700       0.84030400      -0.08878700
C       -0.67178800      -0.09444500      -0.97622400
C        1.64309800       0.93310000      -0.81664800
C        0.62155100      -0.05968900      -1.27721000
C        1.45235200      -1.59462900       1.38791400
O        2.61231500      -1.77092800       1.15712100
H       -2.67977400      -0.69637200       0.82077400
H       -2.62079600       0.80937300       1.73808200
H       -1.23864600      -0.29332600       1.75212600
H       -0.80700700       1.66757100       0.24135500
H       -2.25116600       1.28858000      -0.66904800
H       -1.26098700      -0.90295400      -1.40474700
H        2.07057600       1.46792400      -1.66907200
H        1.23712200       1.67186500      -0.12691300
H        0.99862900      -0.83645900      -1.93786800
H        1.07634100      -0.64207400       1.80812900
H        0.69122100      -2.37421600       1.19261500
H        2.47200600       0.42602600      -0.31605000
