17
Extracted from Q-Chem output
C       1.903596     -0.606262      0.122804
C       0.617621      0.074483      0.558801
C       0.146600      1.213582     -0.379431
C      -1.329475      0.904195     -0.621736
C      -1.767027     -0.059618      0.293649
C      -0.581772     -0.888340      0.612947
O      -0.838890     -1.592975     -0.561265
H       1.767993     -1.078298     -0.851765
H       2.724160      0.110477      0.051086
H       2.196397     -1.383751      0.831528
H       0.741915      0.480241      1.568596
H       0.704442      1.220713     -1.317534
H       0.276056      2.195934      0.079243
H      -1.999873      1.552776     -1.168854
H      -2.783789     -0.382034      0.473266
H      -0.611125     -1.513716      1.509369
H      -1.169566     -0.263967     -1.163598
