14
Extracted from Q-Chem output
C       1.850001     -0.222138      0.500724
C       1.219832      0.863923      0.064339
O      -0.471901     -1.199239     -1.433833
C      -1.403037     -0.884284     -0.429933
C      -1.264380      0.468263      0.217887
C      -0.174969      1.212266      0.384684
H       0.413429     -1.012770     -1.108084
H       2.888956     -0.408242      0.257554
H       1.352191     -0.945440      1.138465
H       1.775608      1.591843     -0.522271
H      -2.381826     -0.928478     -0.912655
H      -1.417933     -1.653453      0.358302
H      -2.202792      0.880623      0.579289
H      -0.306470      2.204159      0.810021
