14
Extracted from Q-Chem output
C       1.789264     -0.353318      0.387410
C       0.926136      0.581091     -0.229526
O      -0.092894     -0.759113     -1.116221
C      -1.381298     -0.695355     -0.565280
C      -1.397592      0.474881      0.382659
C      -0.251139      1.125478      0.487959
H       0.841366     -1.093653     -0.341141
H       2.797117     -0.461605      0.006274
H       1.643715     -0.549787      1.443654
H       1.268881      1.121470     -1.107345
H      -2.125856     -0.549760     -1.357956
H      -1.645965     -1.625622     -0.047833
H      -2.301006      0.765221      0.905931
H      -0.112224      2.008069      1.101253
