16
smiles: [C:1]([C:2]([C@@:3]1([H:12])[O+:4]=[C-:5]1)([H:10])[H:11])([H:7])([H:8])[H:9].[C:6]([H:13])([H:14])([H:15])[H:16]
C        1.49329700       0.32325900      -0.94554700
C        0.78826900       0.91674300       0.26988900
C        0.91601000       0.00824800       1.45660700
O        0.07625600       0.31289000       2.61289600
C       -0.24798500      -0.75980800       1.98697800
C       -2.28862300      -0.81947800      -1.21379400
H        2.55837000       0.17666900      -0.75288900
H        1.40064500       0.98495100      -1.80710400
H        1.06577700      -0.64405700      -1.21485100
H        1.21127300       1.89718200       0.51010200
H       -0.27113300       1.07586900       0.05293600
H        1.91168600      -0.31261200       1.74734600
H       -1.82664700      -1.25056600      -0.32699600
H       -1.51816300      -0.57770500      -1.94421100
H       -2.82592400       0.08680300      -0.93844200
H       -2.98509800      -1.53714800      -1.64488700
