16
Extracted from Q-Chem output
C       1.703904      0.473355     -0.955048
C       0.706246      0.930150      0.104237
C       0.382645     -0.177770      1.065396
O      -0.827267     -0.056447      1.852841
C      -0.722244     -1.124164      1.027972
C      -1.852633     -0.625068     -0.704324
H       2.626364      0.107173     -0.498953
H       1.967219      1.294505     -1.622512
H       1.294181     -0.336738     -1.562002
H       1.131257      1.759310      0.677614
H      -0.206127      1.304495     -0.357875
H       1.235937     -0.509299      1.657264
H      -1.511008     -1.581662      0.330515
H      -1.118624     -0.487560     -1.491845
H      -2.284588      0.299979     -0.337489
H      -2.628811     -1.327719     -1.015371
