15
smiles: [C:1]([C:2]1=[C:3]([H:11])/[C:4](=[N:5]/[H:12])[C:6]([H:14])=[N:7]1)([H:8])([H:9])[H:10].[H:13][H:15]
C        2.56526100      -0.35913900      -0.82040000
C        1.22806300       0.13562300      -0.41904200
C        0.19643400      -0.50370200       0.14014200
C       -0.87013300       0.48977900       0.30206300
N       -2.02668500       0.31459600       0.78575600
C       -0.24609300       1.74098400      -0.25032600
N        0.93962400       1.53857600      -0.65720900
H        3.34396700       0.19891600      -0.29579500
H        2.67847800      -1.42042100      -0.60429400
H        2.71885600      -0.19237000      -1.88899700
H        0.12512300      -1.54108000       0.42484500
H       -2.55980000       1.18377600       0.77154700
H       -3.48066900      -1.89153300       1.49664600
H       -0.73420700       2.70948600      -0.30459000
H       -3.95795500      -2.43921700       1.65973500
