15
Extracted from Q-Chem output
C       2.086744     -0.472836      0.187922
C       0.708986     -0.000408     -0.122191
C      -0.199638     -0.504118     -1.053314
C      -1.322278      0.272186     -0.745244
N      -2.197255     -0.383983      0.033111
C      -0.794945      1.558944     -0.215118
N       0.393762      1.389267      0.209138
H       2.341731     -0.250771      1.223487
H       2.182774     -1.543427      0.011366
H       2.795524      0.054620     -0.454483
H      -0.275385     -1.553255     -1.300500
H      -2.859119      0.234802      0.494324
H      -1.306076     -0.676935      0.945586
H      -1.351694      2.477927     -0.063715
H      -0.239341     -0.604652      1.045654
