12
Extracted from Q-Chem output
C       2.470989      0.382651      0.161881
C       1.285230     -0.132369      0.292570
C       0.095568     -0.639475      0.440180
C      -1.179612      0.161050      0.365582
C      -1.909228     -0.120094     -0.928919
O      -3.034064     -0.527417     -1.000225
H       3.023857      0.735464      1.024774
H       2.940414      0.467625     -0.811243
H       0.002415     -1.709853      0.601401
H      -0.942838      1.228552      0.387797
H      -1.846397     -0.071111      1.197127
H      -1.312936      0.072603     -1.845791
