12
smiles: [O+:1]#[C-:2].[O:3]=[C:4]([C:5]([C:6]([H:7])([H:11])[H:12])([H:9])[H:10])[H:8]
O        3.87227900      -0.04874600      -0.02125200
C        2.90544300       0.52172800      -0.06427400
O        0.80740000      -1.79344300       0.63699900
C       -0.24387000      -1.21910400       0.56979000
C       -0.65166900      -0.29340600      -0.54213900
C       -1.05888600       1.07805800      -0.00611500
H       -0.21529100       1.57579200       0.47505800
H       -1.00310600      -1.34844600       1.37324400
H        0.16943500      -0.22351700      -1.25634300
H       -1.50561800      -0.75665100      -1.04952500
H       -1.41073600       1.71971400      -0.81389500
H       -1.86389000       0.99460900       0.72748900
