12
Extracted from Q-Chem output
O       3.137996      0.301500      0.333733
C       1.995578      0.308435      0.377034
O       1.123727     -1.118265     -0.131300
C      -0.104691     -0.920180      0.189114
C      -1.144136     -0.391818     -0.695780
C      -0.677464      0.816407      0.113379
H       0.685077      0.790755      0.516641
H      -0.440125     -1.241773      1.180066
H      -0.879374     -0.363370     -1.746997
H      -2.158112     -0.731156     -0.517106
H      -0.405315      1.657971     -0.519040
H      -1.331672      1.098083      0.929294
