19
Extracted from Q-Chem output
C       2.553061      0.083393     -0.440186
C       1.578398     -0.131825      0.751550
O       2.237227      0.095168      1.977643
C       0.535519      0.838678      0.454156
C      -0.455614      0.368799     -0.530033
C      -1.705273      0.021405      0.318973
C      -2.846436     -0.483061     -0.555032
H       2.185463     -0.377372     -1.356404
H       3.495513     -0.378217     -0.149676
H       2.736309      1.145659     -0.615387
H       1.248855     -1.181139      0.738900
H       1.961644      0.972974      2.261452
H      -1.445604     -0.739162      1.060704
H      -0.171065     -0.521138     -1.111416
H      -0.739029      1.171407     -1.215736
H      -2.014568      0.907752      0.875444
H      -2.562072     -1.386339     -1.098685
H      -3.140241      0.270658     -1.288368
H      -3.721267     -0.719724      0.052784
