13
Extracted from Q-Chem output
O       0.373468      0.569604      1.273293
C       1.272521      0.429396      0.000108
C       0.353098      0.340289     -1.090076
C      -1.202784     -0.236715      0.410288
C      -0.702746     -0.725167     -0.878584
H       0.751042      0.098392      2.036838
H       1.837813     -0.485410      0.219952
H       1.933147      1.293501     -0.031847
H       0.030187      1.265828     -1.554510
H      -1.298597     -0.860658      1.293414
H      -1.825860      0.646059      0.398457
H      -0.312890     -1.744745     -0.833436
H      -1.468501     -0.663028     -1.653119
