12
Extracted from Q-Chem output
C       1.183722     -0.758594      0.200901
C      -0.251697     -0.558859      0.704745
C      -0.104336      0.924242      0.455933
O      -1.441925      1.041692     -0.371859
C      -0.688201     -0.298808     -0.717919
C       0.698083      0.413557     -0.779132
H       1.402966     -1.716010     -0.273544
H       1.982281     -0.497342      0.896421
H      -0.814200     -1.057280      1.503185
H       0.035573      1.757214      1.140157
H      -1.239992     -0.913702     -1.424467
H      -1.179436      1.626378     -1.112450
