14
Extracted from Q-Chem output
C       0.946658      1.644847     -0.052943
N       1.640067     -1.056950     -0.682878
C       0.487325     -0.772421     -0.213237
N       0.217969      0.470246      0.360463
N      -1.170968      0.612325      0.513364
C      -1.704462     -0.644687      0.308080
C      -0.780387     -1.497496     -0.150558
H       0.890295      2.413408      0.719072
H       1.982611      1.344018     -0.190232
H       0.560031      2.045980     -0.995181
H       1.645636     -1.998637     -1.055310
H      -1.414526      1.053085      1.391556
H      -2.752617     -0.806763      0.513123
H      -0.931420     -2.514849     -0.471110
