14
Extracted from Q-Chem output
C       1.561775      1.552386     -0.135429
N       1.509742     -0.639653     -0.336593
C       0.194132     -0.622133     -0.198680
N      -0.323073      0.600345     -0.105345
N      -1.574760      0.476151      0.441178
C      -1.917184     -0.840515      0.457321
C      -0.846523     -1.579896      0.060009
H       2.059922      1.316992      0.791783
H       2.178719      1.477598     -1.016394
H       0.933575      2.429818     -0.116914
H       1.865941     -1.369165     -0.945127
H      -2.229372      1.220398      0.278847
H      -2.901580     -1.149099      0.779172
H      -0.758672     -2.653158      0.064468
