19
Extracted from Q-Chem output
C      -2.008141     -1.136714     -0.794545
C      -0.480821      0.401673     -0.131881
C      -1.362257      1.199505      0.773115
C       0.356610     -0.557935      0.604661
O       1.213456     -1.412282     -0.146451
C       1.826840     -0.374376      0.577096
C       2.526479      0.700446     -0.200745
H      -2.890095     -0.782156     -1.326149
H      -1.571703     -2.018127     -1.258871
H      -2.229573     -1.312438      0.252189
H      -1.196030     -0.275029     -1.050746
H      -1.770309      0.674674      1.649777
H      -2.174602      1.687967      0.235106
H      -0.715129      1.999737      1.151668
H      -0.042767     -1.046973      1.500196
H       2.348623     -0.717387      1.470432
H       1.927081      1.004841     -1.056026
H       3.492465      0.330822     -0.550716
H       2.708032      1.569403      0.435715
