18
smiles: [C:1]([C:2]([N:3]1[C:4]([H:13])([H:14])[C:5]1=[C:6]([H:16])[H:17])([H:11])[H:12])([H:8])([H:9])[H:10].[O:7]([H:15])[H:18]
C       -1.40942600      -1.70810100      -0.12585000
C       -1.25427800      -0.33191600       0.49203400
N       -0.04074900      -0.25771800       1.29700700
C        0.55311200       1.06292500       1.58326300
C        1.15267800       0.08288600       0.69688200
C        2.04859400      -0.28810900      -0.19368200
O        0.16226900       1.84020700      -1.85187800
H       -2.34052300      -1.76762600      -0.69178800
H       -1.42246400      -2.47747100       0.64715900
H       -0.58602500      -1.92269500      -0.80924600
H       -1.23775600       0.43636200      -0.29560400
H       -2.09664800      -0.11397100       1.15252700
H        0.09392500       1.93291500       1.11736400
H        0.90191800       1.20655400       2.59944500
H        0.78209100       1.21139600      -1.48023700
H        2.90587800       0.33817600      -0.39789200
H        1.96172600      -1.23023200      -0.71928700
H        0.11890600       1.63314400      -2.78633400
