15
Extracted from Q-Chem output
C      -2.126197      0.348183     -0.037037
C      -0.863924     -0.416365     -0.376827
O       0.305690      0.223701      0.152355
C       0.879144     -0.216074      1.445080
N       2.085943     -0.285906      1.466722
C       2.018804      0.240643     -0.727319
H      -2.286576      0.383885      1.041241
H      -2.063634      1.372054     -0.406957
H      -2.993381     -0.132949     -0.494388
H      -0.901708     -1.446205     -0.009057
H      -0.716873     -0.455895     -1.459202
H       0.073925     -0.369789      2.164242
H       2.471635     -0.736766     -0.783294
H       2.679059      1.021597     -0.385853
H       1.423561      0.516366     -1.592938
