16
Extracted from Q-Chem output
C       1.849333      0.149036      0.515253
C       0.647271      0.619243     -0.278909
C      -0.121783     -0.563662     -1.021253
C      -1.512091     -0.405424     -0.480516
C      -1.447438     -0.264291      0.920115
O      -0.300845      1.276416      0.536012
H       2.326077      0.990493      1.018794
H       2.579984     -0.324158     -0.145644
H       1.563225     -0.583059      1.274099
H       0.976957      1.337751     -1.035913
H      -0.076012     -0.458883     -2.105705
H       0.344619     -1.517719     -0.757881
H      -2.431107     -0.595057     -1.015418
H      -1.294873      0.907096     -0.231019
H      -0.673423     -0.716336      1.532380
H      -2.316058      0.081770      1.471599
