17
smiles: [C:1]([C@@:2]1([H:11])[C-:3]=[O+:4][C@:5]([C:6]([H:15])([H:16])[H:17])([H:14])[O:7]1)([H:8])([H:9])[H:10].[H:12][H:13]
C        1.98290900       0.38386500      -0.59107700
C        0.86848100      -0.60729700      -0.34637100
C        0.39015400      -0.67262800       1.08412000
O       -0.89484300      -0.65633300       1.01060700
C       -1.38985200      -0.62494800      -0.39124700
C       -2.52010600       0.35310900      -0.51672500
O       -0.28397900      -0.26165300      -1.12302500
H        2.24797700       0.40186300      -1.64806800
H        2.85963200       0.10182000      -0.00893400
H        1.67243400       1.38517200      -0.29063700
H        1.20085500      -1.63025900      -0.59267100
H        2.22029500       1.52913000       3.14643200
H        1.88801400       0.92773200       2.85957700
H       -1.70210500      -1.65863200      -0.59371800
H       -2.17668000       1.35234900      -0.24943500
H       -2.88114600       0.36419700      -1.54517000
H       -3.34037700       0.06370300       0.13985900
