14
Extracted from Q-Chem output
C       1.720155     -0.258903      0.321940
C       0.767716      0.661530     -0.412556
C      -0.378811      0.113976     -1.202353
C      -1.725221     -0.990201      0.608431
O      -1.114358     -0.013553      1.118955
C      -0.645387      0.890813     -0.016941
H       1.213816     -1.167950      0.648862
H       2.168245      0.225907      1.193739
H       2.526495     -0.561124     -0.349490
H       1.245605      1.593418     -0.722399
H      -0.654891      0.422074     -2.202762
H      -1.946927     -1.815754      1.282232
H      -2.082588     -0.963253     -0.410395
H      -1.093849      1.863021      0.142736
