14
Extracted from Q-Chem output
O       1.629387     -0.378129     -0.491133
C       0.869070      0.764624     -0.191533
C      -0.418858      0.553651      0.527341
C      -0.426693      1.007760     -0.906161
O      -0.769740     -1.795618     -0.116390
C      -0.895346     -0.836029      0.905785
H       2.052130     -0.247341     -1.342281
H       0.159291     -1.808082     -0.370941
H       1.469642      1.625625      0.086985
H      -0.654843      1.299243      1.279230
H      -0.722812      0.258360     -1.629639
H      -0.707718      2.025299     -1.143533
H      -1.957878     -0.789495      1.154757
H      -0.361216     -1.157073      1.810122
