19
Extracted from Q-Chem output
C      -2.012123     -1.006153     -0.815763
C      -0.803000     -0.232448     -0.461190
C      -0.815114      1.025088      1.069816
C      -0.038596     -0.414337      0.681486
O       1.814431     -1.652425      0.473843
C       1.550231     -0.393192      0.695493
C       2.123557      0.600067     -0.326921
H      -2.754026     -0.412162     -1.349135
H      -1.668470     -1.794826     -1.497034
H      -2.458233     -1.492325      0.050553
H      -0.435376      0.479119     -1.196212
H      -0.641031      0.953284      2.144298
H      -1.891431      1.145239      0.931694
H      -0.276846      1.871470      0.658195
H      -0.387278     -1.182515      1.366392
H       1.807989      0.001655      1.715014
H       1.884038      0.279913     -1.344215
H       3.209472      0.575892     -0.231395
H       1.801383      1.637715     -0.175300
