11
Extracted from Q-Chem output
C      -1.709676     -0.323776     -0.117450
C      -0.236407     -0.267747     -0.012610
C       0.765237      0.862936      0.235670
O       1.641652      0.802617     -0.906855
C       1.721402     -0.205748      0.068755
N       0.626230     -1.199481     -0.188490
H      -2.031127     -1.339623     -0.342362
H      -2.048096      0.349883     -0.908480
H      -2.173194      0.008048      0.814047
H       0.749378      1.762159      0.833662
H       2.668779     -0.449573      0.525319
