11
Extracted from Q-Chem output
C      -1.522185     -0.344853     -0.039865
C      -0.116680      0.026224     -0.347063
C       0.590742      1.067513      0.227067
O       1.942762      0.971920     -0.243705
C       1.584128     -0.356807     -0.207599
N       0.712270     -0.813536     -1.107708
H      -1.553271     -1.278357      0.521805
H      -2.043262     -0.510873     -0.983851
H      -2.024363      0.441336      0.524273
H       0.368617      1.728114      1.048934
H       2.035422     -0.930988      0.608916
