11
Extracted from Q-Chem output
C      -1.337937     -0.122899     -0.040000
C       0.134149      0.197801      0.123125
C       1.765054     -1.525149     -0.318409
O       0.907516     -0.668741     -0.757959
C       0.439374      1.587197     -0.233579
N       0.657079      2.682017     -0.492491
H      -1.639648      0.013729     -1.077605
H      -1.519944     -1.156258      0.253540
H      -1.934517      0.536402      0.590129
H       0.477538      0.016318      1.146791
H       1.791652     -1.426589      0.801936
