11
Extracted from Q-Chem output
C      -1.194953     -0.219644      0.022262
C       0.253634      0.197892     -0.082467
C       1.668769     -0.988651      0.242106
O       1.021874     -0.608053     -0.947867
C       0.458610      1.617667     -0.385270
N       0.562905      2.735110     -0.615002
H      -1.690410     -0.027222     -0.929257
H      -1.251123     -1.285033      0.240621
H      -1.706429      0.336818      0.807265
H       0.806378      0.100872      0.948137
H       1.014200     -1.794717      0.665458
