16
Extracted from Q-Chem output
O       2.703737      0.315078      0.481458
C       2.051413     -0.666818     -0.275947
C       0.754107     -0.117660     -0.872279
C      -0.028067      0.701621      0.044920
C      -2.129882     -0.254296      0.552124
C      -1.447762      0.823899     -0.324770
H       1.996768      0.810372      0.922385
H       1.811605     -1.548574      0.335098
H       2.733391     -0.991005     -1.064955
H       0.200831     -0.853557     -1.475643
H       1.020714      0.708871     -1.568154
H      -1.945318     -0.073659      1.610760
H      -1.773700     -1.256053      0.306229
H      -3.204437     -0.225489      0.373967
H      -1.675993      0.618204     -1.380624
H      -1.856625      1.795725     -0.042947
