14
Extracted from Q-Chem output
C      -1.972780      0.321235     -0.467777
C      -0.927305     -0.559686      0.209008
C       0.413429      0.119897      0.290563
O       0.542304      1.254492      0.775503
C       1.572685     -0.570046     -0.153997
O       2.738727      0.469985     -0.050823
H      -2.055676      1.276861      0.048826
H      -2.948303     -0.166000     -0.458311
H      -1.706167      0.521543     -1.507405
H      -0.823058     -1.518496     -0.304711
H      -1.233052     -0.779604      1.235873
H       2.640419     -0.413869      0.631724
H       1.633425     -1.118006     -1.082311
H       2.179218      1.200860      0.361540
