15
Extracted from Q-Chem output
C      -0.692963     -1.344972      0.640372
C      -0.278925     -0.145697     -0.192331
C      -1.129971      1.095195      0.003334
C       1.384243      0.350084      0.577253
O       1.289545      0.639615      1.720840
N       2.183024      0.216783     -0.437091
H      -0.621430     -1.100855      1.701638
H      -0.057203     -2.210309      0.445426
H      -1.726472     -1.626761      0.426160
H      -0.375134     -0.441941     -1.263208
H      -0.800144      1.916817     -0.634736
H      -2.177354      0.886250     -0.226566
H      -1.070991      1.424336      1.042141
H       0.896370     -0.092367     -0.777325
H       3.167286      0.425742     -0.295811
