10
Extracted from Q-Chem output
N       1.632544     -0.576714      0.787975
C       0.718014      0.205293      0.181878
C       0.113615      1.275957     -0.170350
O      -2.501214      0.315747      0.441304
C      -1.654184     -0.449275      0.075778
N      -0.472358     -0.072432     -0.584994
H       2.500759     -0.137977      1.043593
H       1.720054     -1.505668      0.410853
H      -0.054420      2.309809     -0.382231
H      -1.776180     -1.545845      0.132213
