13
Extracted from Q-Chem output
C      -1.729697      0.068912     -1.181367
N      -0.480909     -0.035069     -1.281014
C       0.217020     -0.843883     -0.303364
C       1.286386     -0.015928      0.399291
C       0.699578      1.051193      1.285812
O       1.157225      2.149143      1.430823
H      -0.214569      0.746316      1.844131
H      -2.274732      0.675354     -1.901916
H      -2.312606     -0.428322     -0.394607
H       0.699706     -1.666575     -0.835504
H      -0.470746     -1.285495      0.435692
H       1.877076     -0.672432      1.048889
H       1.964311      0.448343     -0.317009
