13
Extracted from Q-Chem output
C      -1.791991      0.389649     -0.071663
N      -0.380542      0.148452     -0.008884
C       0.409389     -1.075232     -0.010148
C       1.669130     -0.183272      0.072001
C       0.685918      0.995245      0.060097
O       0.761707      2.193391      0.094730
H      -2.309900     -0.066505      0.776216
H      -1.946996      1.467741     -0.039858
H      -2.221113     -0.001875     -0.997941
H       0.314076     -1.662482     -0.927178
H       0.232156     -1.718171      0.855801
H       2.248766     -0.267664      0.989226
H       2.329400     -0.219278     -0.792399
