15
Extracted from Q-Chem output
C      -0.346069     -1.815468     -0.063519
C      -0.280175     -0.362466      0.428764
C       0.507429      0.468862     -0.559676
C       1.677217      1.126376     -0.267082
C       2.688114      1.932612     -0.411783
C      -1.628798      0.181554      0.629805
C      -2.729096      0.631847      0.772498
H      -0.829035     -1.866945     -1.040700
H       0.659427     -2.228705     -0.147734
H      -0.924261     -2.425215      0.630819
H       0.241831     -0.346558      1.390639
H       0.063825      0.575282     -1.548532
H       0.949495      1.537904      0.552063
H       3.659357      1.555911     -0.728958
H      -3.705837      1.034494      0.902922
