8
Extracted from Q-Chem output
N      -1.099831     -0.330823      0.237151
C      -0.363424      0.758963      0.038872
O      -0.658696      1.908763      0.045755
C       1.395276     -0.791898     -0.244776
O       1.032506      0.447219     -0.227339
H      -2.077488     -0.223553      0.427095
H      -0.635314     -1.228491      0.184013
H       2.480054     -0.739588     -0.464064
