8
Extracted from Q-Chem output
O      -1.703642     -1.543222      0.482168
C      -1.477085     -0.367190      0.530473
C      -0.104567      0.176414      0.404008
C       0.515284      1.451019      0.284114
C       1.194968      0.713835     -0.812581
C       1.165948     -0.319099      0.150497
H      -2.265958      0.385060      0.698419
H       1.858133     -1.010435      0.606082
