14
Extracted from Q-Chem output
C      -1.773754      0.793611     -0.005296
C      -1.053176     -0.552295     -0.084091
C       0.404666     -0.433699      0.210642
C       1.491920     -0.345794     -0.654719
N       2.649599     -0.240473      0.185500
N       2.190853     -0.204933      1.418505
N       0.883733     -0.360993      1.451662
H      -2.840307      0.669947     -0.198053
H      -1.654580      1.235006      0.984928
H      -1.377474      1.497356     -0.740197
H      -1.486262     -1.245108      0.639675
H      -1.187042     -0.993226     -1.074382
H       1.597300     -0.554635     -1.708504
H       2.154458      0.732080     -0.448504
