15
Extracted from Q-Chem output
N      -2.053676     -0.187863      0.324059
C      -0.690574     -0.666547      0.309362
C      -0.071331     -1.094643     -1.053844
C       1.179972     -0.225024     -0.757286
O       1.526576      2.222860      0.729613
C       0.385818      0.386831      0.365837
N       0.405239      1.455263      1.029675
H      -2.700649     -0.906932      0.614239
H      -2.141460      0.591685      0.961833
H      -0.485843     -1.434266      1.068625
H      -0.663828     -0.691769     -1.873959
H       0.092424     -2.160625     -1.205525
H       1.508202      0.469324     -1.529564
H       2.043930     -0.789842     -0.403155
H       1.402200      3.006744      1.267865
