12
Extracted from Q-Chem output
N       2.094863      0.084423     -0.069702
C       0.849865      0.087682     -0.489582
C      -0.139013      1.002513     -0.147438
C      -1.422450      0.552615      0.073719
C      -1.533013     -0.845599      0.007543
N      -0.483185     -1.625873      0.073225
H       2.776981     -0.488986     -0.536495
H       2.419542      0.587070      0.745251
H       0.098102      2.061487     -0.209388
H      -2.276945      1.213172      0.125401
H      -2.473234     -1.297970     -0.306769
H       0.197917     -1.272540      0.738624
