10
Extracted from Q-Chem output
O       1.916045     -0.129828      0.599590
C       0.696815      0.018891      0.042106
N       0.054216     -1.114350     -0.740723
C      -1.086569     -0.712181     -0.327392
C      -0.638893      0.490154      0.480127
N       0.259812      1.283145     -0.400396
H       1.981114     -1.020867      0.953210
H      -2.053696     -1.134307     -0.586510
H      -1.023656      0.930096      1.387222
H      -0.030948      1.306480     -1.372683
