11
Extracted from Q-Chem output
O       0.804213     -0.143892      1.410944
C       1.157889     -0.658949      0.172375
O       0.345165     -1.673007     -0.232785
C      -0.900918     -1.002166     -0.288560
C      -0.977775      0.296240      0.006772
C       0.334130      0.926695      0.543169
C       1.355517      0.484177     -0.525332
H      -1.706204     -1.671012     -0.547144
H      -1.908214      0.839892     -0.063124
H       0.290231      1.914844      1.002310
H       1.302900      0.572760     -1.599862
