15
Extracted from Q-Chem output
C       1.416324      0.691648     -0.225679
C       0.207996      0.178388      0.501376
O       0.445010     -0.428574      1.717576
C      -1.039314      0.950100      0.442877
C      -1.146471     -0.398519     -0.209856
O      -1.255235     -0.503477     -1.591990
C      -0.114384     -1.292670     -1.442166
H       1.150106      1.046822     -1.218466
H       1.838608      1.516360      0.356323
H       2.163090     -0.091423     -0.352476
H       1.131373     -1.090677      1.598632
H      -1.614370      1.045105      1.354649
H      -1.058447      1.802633     -0.222379
H      -1.655038     -1.163665      0.366594
H      -0.495670     -2.267967     -1.036964
