10
Extracted from Q-Chem output
O       2.198276      0.529503     -0.201667
C       1.089106      0.120055      0.398492
C      -0.971438     -0.929831     -0.053233
N      -1.496215      0.158517      0.462414
N      -0.725105      1.105533     -0.087811
C       0.040348     -0.032385     -0.668151
H       2.854747      0.690556      0.482254
H      -1.137168     -1.964922      0.196056
H      -2.171666      0.328191      1.197579
H       0.314320     -0.011662     -1.719856
