10
Extracted from Q-Chem output
O       2.105625     -0.044350     -0.168431
C       0.870726      0.262340      0.269712
C      -0.386826     -0.719758      0.053403
N      -1.496970     -0.075125      0.423956
N      -1.202316      1.208158      0.226702
C      -0.024127      0.851333     -0.583639
H       2.573460     -0.501327      0.533733
H      -0.272460     -1.768217     -0.176938
H      -2.230935     -0.372712      1.050971
H       0.062117      1.157735     -1.627296
