17
smiles: [C:1]([H:8])([H:9])([H:10])[H:12].[C:2]12=[C:3]([H:11])[C@@:4]([H:13])([C:5]([H:14])([H:15])[C:6]1([H:16])[H:17])[O:7]2
C        3.21795800      -0.76547800       0.04969700
C       -0.64435400       1.22360200       0.50135800
C       -0.37183600       0.08993600       1.20560100
C       -0.38385900      -0.37104500      -0.27949900
C       -1.90684900      -0.17194800      -0.62932500
C       -2.06908800       1.29668900       0.00433300
O        0.09955900       0.93435900      -0.66312800
H        2.69698300      -1.29930300       0.84312500
H        4.17641900      -0.40749100       0.42265400
H        3.38314600      -1.43665900      -0.79164000
H       -0.97562500      -0.26476100       2.03173800
H        2.61535700       0.08199500      -0.27353200
H        0.15830300      -1.22928500      -0.67957300
H       -2.56406000      -0.87272800      -0.10944400
H       -2.10446500      -0.23332800      -1.70172100
H       -2.25196100       2.06742500      -0.74069400
H       -2.81990400       1.33462500       0.78976400
