17
Extracted from Q-Chem output
C       2.183455      0.191947      0.198689
C       0.363881     -0.196250     -0.018243
C      -0.253588     -1.480275      0.436785
C      -1.112897     -0.984235     -0.740549
C      -1.760810      0.363234     -0.281396
C      -0.484351      1.026198      0.327811
O       0.121386     -0.439980     -1.369660
H       2.199640      0.785246     -0.708269
H       2.973562     -0.565586      0.133311
H       2.256413      0.771389      1.111695
H      -0.716218     -1.400674      1.426400
H       1.427116     -0.801526      0.353972
H      -1.688297     -1.630454     -1.400978
H      -2.547265      0.201587      0.455095
H      -2.158965      0.943342     -1.115154
H      -0.185150      1.932715     -0.199376
H      -0.543375      1.212824      1.398292
