10
Extracted from Q-Chem output
N       1.948289     -0.050416     -0.335349
C       0.591402     -0.031727     -0.123653
N      -0.148168     -1.121590     -0.102116
N      -1.390656     -0.609272      0.070478
C      -1.335512      0.720147      0.147304
N      -0.094562      1.132869      0.030051
H       2.425166      0.759315      0.021443
H       2.394168     -0.924863     -0.117841
H      -2.185387     -1.219181      0.122037
H      -2.204741      1.344718      0.287646
