12
Extracted from Q-Chem output
C       2.528980     -0.362825     -0.207567
C       1.381917     -0.285518      0.128125
C      -0.014283     -0.182722      0.507337
C      -1.077282     -0.756662     -0.451616
O      -1.809074      0.473752     -0.437782
C      -0.747743      1.149000      0.245828
H       3.549162     -0.433658     -0.502794
H      -0.153276     -0.532990      1.530115
H      -0.688773     -0.991702     -1.446687
H      -1.668731     -1.593809     -0.076083
H      -1.101474      1.690034      1.125471
H      -0.199422      1.827099     -0.414346
