10
Extracted from Q-Chem output
O      -0.259058      0.107497      1.619044
C      -0.535362     -0.756553      0.175066
O      -1.172514      0.114398     -0.639423
C      -0.161408      1.157487     -0.470040
C       0.556177      0.264906      0.570708
C       1.141102     -0.884392     -0.012596
H      -0.956070     -1.696682      0.491077
H       0.388681      1.310049     -1.392573
H      -0.618018      2.055850     -0.065767
H       1.324845     -1.621039      0.779440
