13
Extracted from Q-Chem output
C      -1.659599     -1.042197      0.322636
C      -0.649976     -0.066431     -0.259660
C       1.474023      2.165354      0.024885
O       1.863303      1.062165      0.599126
C       1.712858     -0.207680     -0.009213
N       0.643164     -0.713608     -0.381381
H      -1.715681     -1.944640     -0.286357
H      -2.647957     -0.582070      0.361939
H      -1.377688     -1.331671      1.336082
H      -0.956340      0.221867     -1.268398
H      -0.619617      0.849716      0.343934
H       1.133358      1.885455     -1.005819
H       2.666921     -0.723144     -0.053866
