13
Extracted from Q-Chem output
C      -1.536948     -0.861135      0.354829
C      -0.478377     -0.100353     -0.418917
C       0.729186      1.773501      0.237244
O       1.739141      0.919884      0.601105
C       1.776809     -0.284897     -0.025207
N       0.747156     -0.808417     -0.515764
H      -1.744231     -1.807964     -0.146263
H      -2.460677     -0.284790      0.410132
H      -1.195103     -1.077095      1.367620
H      -0.832540      0.214914     -1.400022
H      -0.380439      0.943774      0.218816
H       0.809490      1.884978     -0.865104
H       2.742866     -0.774668      0.011631
