12
Extracted from Q-Chem output
C       1.236452      0.258279     -0.296390
C       0.210688     -0.812945     -0.102283
C       0.625126      0.310558      1.066220
C      -0.752074      0.014873      1.177510
O      -1.250095      0.762938     -1.231054
C      -1.160366     -0.248506     -0.256435
H       0.977018      1.001571     -1.037565
H       2.273558     -0.058432     -0.300865
H       0.454098     -1.854698      0.039673
H       1.267921      0.192844      1.934154
H      -1.855428      1.428235     -0.899714
H      -1.980320     -0.957581     -0.347454
