18
Extracted from Q-Chem output
C      -1.394617     -0.231789     -1.571983
C      -1.224781      0.073933      0.382524
C       0.099160      0.290917      0.943426
C       0.778239      1.629227      0.884985
N       0.911461     -0.856776      1.181214
C       1.588220     -1.475784      0.190048
O       1.497700     -1.175210     -0.983491
H      -0.801092      0.431224     -2.204463
H      -1.182254     -1.271976     -1.804194
H      -2.452613      0.003738     -1.655135
H      -1.861914      0.948931      0.380545
H      -1.714316     -0.855105      0.647866
H      -0.337631      0.022580     -0.468569
H       0.046393      2.422570      0.714710
H       1.276518      1.857496      1.832283
H       1.537784      1.707944      0.095571
H       1.049240     -1.198544      2.119489
H       2.227284     -2.306048      0.538156
