12
Extracted from Q-Chem output
C      -0.253882      1.504329     -0.187050
C      -0.243866      0.022783     -0.021471
C      -1.477963     -0.721715      0.210681
O      -2.581259     -0.230407      0.178134
C       0.952836     -0.710534     -0.040970
C       2.104521     -1.127031     -0.368050
H       0.257226      2.005158      0.637722
H       0.268793      1.777737     -1.108076
H      -1.283643      1.857509     -0.221240
H       0.575731     -1.024261      1.010621
H      -1.337921     -1.809224      0.384135
H       2.991632     -1.431801      0.161358
