11
Extracted from Q-Chem output
C      -1.718378     -0.392065     -0.788272
N      -1.297707      0.467369      0.296881
C      -0.102817      0.561350      0.632264
O       0.917243     -0.143619     -0.000130
C       2.183186      0.019286      0.443260
O       2.529554      0.719353      1.341061
H      -2.267956      0.214262     -1.509741
H      -2.420571     -1.126631     -0.390441
H      -0.906442     -0.912986     -1.299746
H       0.234998      1.199583      1.440540
H       2.848889     -0.605903     -0.165675
