18
smiles: [C:1]([C:2]([C:3]([C:4](=[C:5]([H:16])[H:17])[H:15])([H:12])[H:13])([H:10])[H:11])([H:7])([H:8])[H:9].[O:6]([H:14])[H:18]
C       -2.48989000       0.37153100       0.17954200
C       -1.12395700      -0.28208300       0.33921400
C       -0.25254700      -0.14090000      -0.90976900
C        1.07348700      -0.82282100      -0.77422100
C        2.25170400      -0.22270500      -0.84199200
O        1.78847000       0.54499500       2.35400100
H       -3.04678300      -0.07755200      -0.64655500
H       -3.09114100       0.26506200       1.08408100
H       -2.39215400       1.43960100      -0.03022600
H       -1.24931300      -1.34451600       0.57272900
H       -0.59734300       0.15738700       1.19155600
H       -0.78957600      -0.56839000      -1.76496400
H       -0.09829400       0.91900800      -1.13481400
H        1.89354700       0.12554800       1.49913100
H        1.03983700      -1.89637600      -0.59565400
H        2.33338000       0.84555500      -1.01661600
H        3.17777800      -0.77358700      -0.73091900
H        1.81496800       1.48691800       2.18100200
