18
Extracted from Q-Chem output
C      -2.749457      0.034944     -0.538538
C      -1.561415     -0.294459      0.354986
C      -0.226793      0.131250     -0.245682
C       0.963324     -0.198065      0.645860
C       2.284414      0.222533      0.038516
O       3.321561     -0.121078      0.939942
H      -2.662966     -0.462313     -1.508028
H      -3.690373     -0.284261     -0.086713
H      -2.817734      1.109744     -0.724650
H      -1.538413     -1.370978      0.554176
H      -1.687430      0.190806      1.328566
H      -0.101953     -0.354928     -1.220679
H      -0.250274      1.209204     -0.445370
H       0.855033      0.296043      1.616347
H       0.998746     -1.273599      0.844824
H       2.277482      1.304790     -0.151659
H       2.425243     -0.282192     -0.927371
H       4.161006      0.142557      0.561697
