18
Extracted from Q-Chem output
C      -2.700953      0.280983     -0.139025
C      -1.410317     -0.378121      0.327317
C      -0.204691     -0.013501     -0.533498
C       1.076649     -0.665109     -0.061141
C       2.330913     -0.083930     -0.331534
O       2.604168      0.511661      1.431191
H      -2.945830     -0.008387     -1.164180
H      -3.544160      0.001549      0.495248
H      -2.616673      1.370726     -0.116553
H      -1.532042     -1.466531      0.326169
H      -1.202636     -0.100090      1.365443
H      -0.422371     -0.286239     -1.574506
H      -0.081446      1.076841     -0.530681
H       1.540723     -0.102747      1.143222
H       1.060617     -1.747833      0.034509
H       2.400740      0.870345     -0.844285
H       3.230091     -0.684354     -0.366905
H       2.501582      1.463990      1.547643
