17
Extracted from Q-Chem output
C       2.365950     -1.290803     -0.525200
C       1.265013     -0.794127      0.391130
O       0.658925      0.368647     -0.156397
C      -1.374825      0.563040      0.440804
C      -2.189613      1.755754      0.646134
C      -0.721596      0.143867     -0.789771
O      -1.115186     -1.047507     -1.057266
H       3.104159     -0.507909     -0.706198
H       2.871986     -2.148226     -0.074845
H       1.942265     -1.601137     -1.480699
H       0.512869     -1.579489      0.514176
H       1.666658     -0.522344      1.371463
H      -1.312553     -0.193168      1.217749
H      -3.207457      1.455212      0.353515
H      -2.237248      2.068650      1.688132
H      -1.892118      2.571049     -0.012692
H      -0.712256      0.900331     -1.594746
