12
smiles: [H:7][H:8].[O:1]=[C:2]1[C:3]([H:9])([H:10])[C@@:4]2([H:11])[O:5][C@@:6]12[H:12]
O        2.42915100       1.34973000      -0.02431000
C        1.29023700       1.00897800      -0.01496800
C        0.56865900      -0.30025500       0.38744700
C       -0.67042100       0.30805500      -0.26494100
O       -0.95170100       1.48638000       0.45634700
C        0.00568900       1.57751100      -0.59949500
H       -1.29969200      -3.40829300       0.00885700
H       -1.31515800      -3.02505200       0.64704200
H        1.00897200      -1.14529000      -0.14414500
H        0.47622800      -0.52191700       1.44937300
H       -1.47822800      -0.17813900      -0.79360900
H       -0.16218000       2.30559200      -1.38128000
