12
Extracted from Q-Chem output
O       1.784241     -0.398238     -1.092899
C       0.631338     -0.319413     -0.500297
C       0.313200     -0.239319      1.026012
C      -0.861375      0.657206      0.652818
O      -0.295532      1.772323     -0.019749
C      -0.562179      0.611755     -0.783613
H       0.837890     -1.399418     -1.189435
H      -0.059194     -1.535794     -0.817211
H       0.059464     -1.202372      1.465029
H       1.098117      0.249735      1.600957
H      -1.812323      0.791356      1.148151
H      -1.177168      0.701751     -1.669417
