13
Extracted from Q-Chem output
C      -1.586975      0.761208     -0.225351
N      -0.523950      0.103364     -0.049543
C      -0.533937     -1.337097      0.144205
C       1.934011      0.229214      0.129286
C       0.847146      1.006288     -0.060399
O       0.584383      2.181269     -0.238218
H      -1.555824     -1.713636      0.114997
H      -1.461495      1.832752     -0.360363
H      -2.553175      0.269426     -0.237910
H       0.052647     -1.806817     -0.642630
H      -0.084513     -1.570514      1.107202
H       1.889507     -0.836787      0.267576
H       2.900064      0.710804      0.141492
