13
Extracted from Q-Chem output
C      -1.610931      0.513833     -0.010002
N      -0.303348      0.114783      0.000780
C      -0.393111     -1.257372      0.083576
C       2.002213      0.207654      0.048866
C       0.853174      0.945579     -0.188270
O       0.641244      2.103405     -0.544965
H      -1.780423     -0.904773      0.156178
H      -1.897231      1.408990      0.538529
H      -2.155470      0.331421     -0.932121
H       0.180625     -1.867562     -0.611760
H      -0.552757     -1.658114      1.082243
H       1.981949     -0.653054      0.701809
H       2.960649      0.595400     -0.263920
