16
smiles: [C:1]([C:2]([C:3]([H:11])([H:12])[H:13])=[N:4][H:14])([H:8])([H:9])[H:10].[C:5](=[C:6]=[O:7])([H:15])[H:16]
C        1.87289900      -0.26174400      -1.03661700
C        0.99144000      -0.23702800       0.18501300
C        0.76974500       1.11243400       0.80607100
N        0.44409700      -1.25293900       0.70776600
C       -2.78488000      -0.37456100       0.59000000
C       -2.28532200       0.10260800      -0.52022100
O       -1.84406000       0.52483400      -1.50085800
H        2.86796900       0.11914500      -0.79331900
H        1.46518800       0.38892800      -1.81406600
H        1.97300900      -1.26947700      -1.43998700
H        0.32226100       1.79891400       0.08262000
H        1.72182500       1.55106400       1.11632700
H        0.11676600       1.02244300       1.67107400
H        0.67909700      -2.09761300       0.18824700
H       -3.82593700      -0.20457200       0.81556900
H       -2.14898500      -0.93346300       1.25831500
