16
Extracted from Q-Chem output
C       1.349421     -0.756301      0.054298
C       0.251023      0.240928     -0.262127
C       0.691432      1.687804     -0.174759
N      -0.656345     -0.023699     -1.254769
C      -1.730270     -1.133934      0.439277
C      -1.182218      0.129416      0.673368
O      -1.608770      1.117246      1.201572
H       1.751935     -0.586248      1.053136
H       2.167271     -0.633642     -0.660686
H       1.006476     -1.789740     -0.004707
H       1.566464      1.834582     -0.811976
H       0.952944      1.944399      0.851672
H      -0.104629      2.348570     -0.506165
H      -0.585373     -0.979662     -1.595174
H      -2.689500     -1.380671      0.885930
H      -1.092868     -1.959833      0.169069
