12
Extracted from Q-Chem output
N      -0.731812     -0.066399      0.879069
C      -0.929756      0.103550     -0.693699
C       0.087788      1.234232     -0.758521
N       1.006697      1.179653      0.129904
C       0.734597     -0.109282      0.810787
N       0.923622     -1.246682     -0.120906
C       0.009037     -1.056198     -0.994915
H      -1.109617      0.736421      1.372623
H      -1.164856     -0.926827      1.200688
H       0.071867      2.016525     -1.509612
H       1.247957     -0.225086      1.760206
H      -0.054596     -1.668274     -1.888262
