19
Extracted from Q-Chem output
C       2.108819     -0.079697      1.350009
C       0.647816      0.321005      1.204644
C       0.245013      0.725650     -0.191420
O       0.437713     -0.617373     -1.175338
C      -1.118160      0.988229     -0.458536
C      -1.326212     -1.094987     -1.448538
O      -2.023097      0.870898      0.598095
H       2.339407     -0.985221      0.782370
H       2.776490      0.709785      0.996843
H       2.356044     -0.282167      2.393490
H      -0.009660     -0.484656      1.537511
H       0.430056      1.169315      1.860359
H       0.953128      1.384043     -0.689978
H       1.172253     -1.261259     -1.069928
H      -1.373417      1.747349     -1.194145
H      -0.935891     -2.031647     -1.846883
H      -1.863896     -1.254264     -0.520842
H      -1.887017     -0.567343     -2.209339
H      -2.878884      0.623021      0.238766
