15
Extracted from Q-Chem output
C       2.388005     -0.608549      0.107520
N       1.065595     -0.045630      0.004113
C       0.717063      1.225321     -0.271530
C      -0.655010      1.271844     -0.268413
C      -1.055485     -0.047700      0.024675
C      -2.436632     -0.599177      0.153713
N      -0.000106     -0.830971      0.187030
H       3.121500      0.179817     -0.050361
H       2.525680     -1.384659     -0.645562
H       2.530579     -1.044361      1.096196
H       1.458440      1.988421     -0.447357
H      -1.281051      2.129741     -0.450453
H      -2.983729     -0.519148     -0.787845
H      -3.007319     -0.064147      0.915014
H      -2.387529     -1.650802      0.433261
