15
Extracted from Q-Chem output
C       2.833445     -0.320773      0.081397
N       1.395393     -0.252759      0.065089
C       0.829325      0.854640     -0.194608
C      -0.606723      0.978103     -0.228725
C      -1.237069     -0.190030      0.040277
C      -2.819047     -0.513478      0.101874
N      -1.140327     -1.392016      0.321715
H       3.316767      0.644249     -0.127652
H       3.176674     -1.047131     -0.659872
H       3.176625     -0.674599      1.056903
H       1.410696      1.762051     -0.404500
H      -1.134676      1.890511     -0.445523
H      -3.155185     -0.266952     -0.901908
H      -3.170792      0.156002      0.882563
H      -3.124560     -1.531294      0.340912
