14
Extracted from Q-Chem output
C       2.230956     -0.020577     -0.183953
O       1.205368     -0.052708     -1.152870
C      -0.055003      0.167521     -0.684438
C      -1.953926     -0.890712      0.425741
C      -0.442495      1.187870      0.171732
O      -1.545127      1.113787      0.770734
H       3.123982     -0.435455     -0.649124
H       2.448056      1.002738      0.140401
H       1.956638     -0.620748      0.689555
H      -0.811121     -0.125979     -1.402418
H      -1.797094     -1.624987     -0.353326
H      -1.475060     -1.116138      1.366635
H      -2.965697     -0.518979      0.489817
H       0.165361      2.088572      0.310364
