17
Extracted from Q-Chem output
C       1.814051     -0.181271      0.272745
C       0.851844      0.935003      0.583851
C       0.257913      1.749731     -0.524556
C      -0.627361      0.849149      0.294238
C      -1.273475     -0.339262     -0.323675
C      -1.177219     -1.569187      0.165399
O      -1.770167     -2.683910     -0.328943
H       1.535048     -0.706390     -0.641125
H       2.822921      0.215365      0.137603
H       1.852615     -0.916309      1.080550
H       1.095667      1.487987      1.484927
H       0.479022      1.428504     -1.536172
H       0.162010      2.820975     -0.403900
H      -1.252749      1.374067      1.010307
H      -1.891768     -0.169236     -1.204474
H      -0.581873     -1.801184      1.041085
H      -2.300320     -2.447962     -1.094949
