17
Extracted from Q-Chem output
C       1.898356     -0.423209      0.140239
C       0.851992      0.565191      0.557537
C       0.261939      1.532563     -0.365272
C      -1.157075      1.185350     -0.054245
C      -1.683061     -0.106033     -0.175578
C      -1.002227     -1.201930      0.273736
O      -1.139955     -2.461094     -0.214061
H       1.705301     -0.832134     -0.852102
H       2.878955      0.074964      0.102915
H       1.991004     -1.262797      0.831655
H       0.848422      0.862142      1.599990
H       0.528971      1.384328     -1.415150
H       0.464180      2.573369     -0.100231
H      -1.831195      1.999625      0.211650
H      -2.671534     -0.239375     -0.621350
H      -0.447087     -1.183134      1.195804
H      -1.500830     -2.421756     -1.102625
