11
Extracted from Q-Chem output
O      -0.799958      1.056191     -1.935717
C      -0.854737      0.866666     -0.645382
C      -0.293409     -0.492882     -0.361078
C       0.290782     -0.588570      1.049041
C       1.534126      0.170231      1.174677
N       2.514079      0.761636      1.248410
H      -1.190307      1.914445     -2.135633
H      -0.424256     -0.194587      1.773542
H      -1.174076     -1.147897     -0.413047
H       0.414274     -0.835683     -1.123395
H       0.501633     -1.626253      1.313139
