11
Extracted from Q-Chem output
O      -0.416287      1.262214     -1.187907
C      -1.048037      0.344626     -0.439964
C      -0.315480     -0.966648     -0.514444
C       0.236493     -0.434965      0.783213
C       1.512435      0.208387      0.770854
N       2.520467      0.760395      0.760307
H      -0.814681      2.121083     -1.024927
H      -0.764158      0.477581      0.846559
H      -0.931571     -1.851279     -0.402445
H       0.398417     -1.047565     -1.328064
H      -0.006070     -0.980179      1.688782
