13
Extracted from Q-Chem output
C      -1.863824     -1.436008      0.291998
C      -0.895905     -0.501318      0.956781
O       2.331872     -0.272979     -0.844164
C       1.861478      1.020148     -0.838629
O       2.915004      0.754028      0.025156
C      -0.195093      0.400917      0.342300
C       0.511198      1.299624     -0.285688
H      -1.913565     -1.256674     -0.780954
H      -2.864185     -1.313535      0.712758
H      -1.563924     -2.472885      0.457136
H      -0.763103     -0.589393      2.032229
H       2.139505      1.617219     -1.708345
H       0.122004      2.302338     -0.430479
