11
Extracted from Q-Chem output
O       1.811134     -0.423745      1.059510
C       0.726353     -0.069330      0.385108
N      -0.218024     -0.966795      0.190697
C      -1.284989     -0.303912     -0.576339
C      -0.845062      1.109613     -0.808585
C       0.389130      1.173982     -0.193169
H      -0.172937     -1.914985      0.519918
H      -2.224335     -0.330769     -0.018096
H      -1.441679     -0.820347     -1.526969
H       2.404908      0.329774      1.120055
H       1.045017      2.035953     -0.134944
