12
Extracted from Q-Chem output
N       2.707351      0.296634     -0.052572
C       2.061456      1.127324     -0.594121
C       1.039107     -0.316653     -0.658918
N      -0.017588     -0.084158      0.254885
C      -1.295546     -0.667266     -0.133622
C      -1.077836      0.797231     -0.184903
H       0.810746     -0.187865     -1.720495
H       1.473610     -1.300447     -0.500932
H      -1.860779     -1.117344      0.672667
H      -1.345204     -1.193212     -1.082806
H      -0.975173      1.255253     -1.163966
H      -1.491349      1.437309      0.583717
