19
smiles: [C:1]([C@@:2]([O:3][H:12])([C@@:4]1([H:13])[C:5]([H:14])([H:15])[C:6]1)[H:11])([H:8])([H:9])[H:10].[C:7]([H:16])([H:17])([H:18])[H:19]
C        2.31589700      -0.29506300      -0.23698200
C        0.88272000      -0.04864700       0.18604700
O        0.78946100      -0.32161100       1.56736600
C        0.44257100       1.37944700      -0.09797800
C       -0.26738300       1.79257800      -1.32933100
C       -1.01578000       1.65117300      -0.05254900
C       -2.42046300      -1.69913700       0.61944000
H        2.43956700      -0.10369400      -1.30379300
H        2.59301500      -1.32909100      -0.02984000
H        2.98750600       0.36057800       0.32006300
H        0.22531600      -0.72560300      -0.37937500
H       -0.08498900      -0.05589200       1.86487100
H        1.04598800       2.12916100       0.41072600
H       -0.54529700       1.05839300      -2.08236600
H       -0.13659100       2.79154400      -1.73085600
H       -2.40620700      -0.61128500       0.57301500
H       -1.48715800      -2.05713400       1.05127700
H       -2.53342600      -2.10408900      -0.38513400
H       -3.25516700      -2.02504300       1.23826600
