19
Extracted from Q-Chem output
C       2.381086     -0.072231     -0.087431
C       0.943932     -0.268741      0.352483
O       0.962761     -0.596304      1.735770
C       0.099607      0.956443      0.105954
C      -0.645164      1.119501     -1.186820
C      -1.396596      1.030795      0.098866
C      -2.090098     -1.055757      0.124582
H       2.430318      0.105259     -1.163050
H       2.970129     -0.959310      0.148239
H       2.823515      0.780133      0.431168
H       0.518850     -1.108117     -0.213794
H       0.132544     -0.312044      2.123270
H       0.530506      1.849148      0.557534
H      -0.600644      0.271716     -1.861251
H      -0.678682      2.076413     -1.695817
H      -2.223179      0.189948      0.424533
H      -1.868538     -1.282476     -0.909726
H      -3.141176     -1.244895      0.348185
H      -1.439533     -1.565109      0.827218
