13
smiles: [H:8][H:10].[N:1](=[C:2]1/[C:3](=[O:4])[N:5]([H:11])[C:6]([H:12])=[C:7]1[H:13])\[H:9]
N       -1.65251400       1.10054200       1.62354600
C       -0.63309400       0.81520400       0.93397300
C       -0.64197800      -0.37983000      -0.03345900
O       -1.51997900      -1.15644600      -0.27506200
N        0.62615900      -0.37143900      -0.59056600
C        1.38073000       0.67608100      -0.07974200
C        0.70212500       1.40469000       0.81591100
H       -0.71433800      -2.87457000      -2.14185800
H       -1.47758500       1.91605700       2.20963200
H       -0.26752200      -3.25337400      -2.60144100
H        0.93035200      -1.03632100      -1.27716000
H        2.39631300       0.81466300      -0.42173900
H        1.07046500       2.26558500       1.34959100
