13
Extracted from Q-Chem output
N      -1.802555      0.479969      0.346812
C      -0.482336      0.359155      0.420588
C       0.010783     -0.969173      0.201693
O      -0.739058     -1.926003     -0.091807
N       1.357416     -0.843965     -0.085375
C       1.726445      0.472503      0.051132
C       0.636324      1.250205      0.276988
H      -2.162664     -0.422275     -0.596357
H      -2.077462      1.417084      0.052661
H      -1.810003     -1.277803     -0.864657
H       1.975092     -1.620572     -0.228419
H       2.768217      0.753940      0.025699
H       0.636966      2.318066      0.421619
