11
Extracted from Q-Chem output
C      -1.269999     -0.529431      0.128547
C      -0.285018      0.592631      0.205989
O       0.824133      0.448662      1.098376
C       1.110704      0.531164     -0.241099
C       2.129423     -0.762495     -0.736420
N       1.155915     -0.906655     -1.395038
H      -1.997701     -0.431106      0.935639
H      -1.801713     -0.488504     -0.823252
H      -0.776234     -1.494648      0.208490
H      -0.711505      1.594178      0.223225
H       1.632810      1.401213     -0.615654
