12
Extracted from Q-Chem output
C       1.579208     -0.705995      0.294392
N       0.327801     -0.136506     -0.106151
C      -0.784322     -0.673465     -0.488547
N      -1.695477      0.258929     -0.271676
C      -0.509147      1.316221      0.186705
O      -0.502775      1.791643      1.295885
H       2.403467     -0.237019     -0.244732
H       1.598343     -1.781082      0.100350
H       1.729027     -0.540413      1.363796
H      -0.935661     -1.669819     -0.900025
H      -2.533679      0.378777     -0.819301
H      -0.286575      1.885891     -0.733890
