16
smiles: [C:1]([C:2](=[O:3])[C:4]([C:5]([H:13])([H:14])[H:15])([H:10])[H:12])([H:7])([H:8])[H:9].[O:6]([H:11])[H:16]
C        1.56584000      -0.01926100      -0.50617600
C        0.10574400      -0.03149700      -0.11897100
O       -0.45198000       0.96059500       0.27841400
C       -0.61348600      -1.35871300      -0.25391800
C       -2.06538800      -1.31788000       0.18518300
O        1.28073900       3.21277800       0.26338600
H        1.69520400      -0.39676800      -1.52288700
H        2.13114300      -0.68010200       0.15541000
H        1.96188900       0.99108800      -0.43386000
H       -0.04501300      -2.10109100       0.31717400
H        0.56973200       2.57102100       0.28307700
H       -0.52401800      -1.67414800      -1.29955100
H       -2.52988200      -2.29878600       0.07501800
H       -2.14838600      -1.01305200       1.22860300
H       -2.63243600      -0.59965900      -0.40707300
H        1.08872800       3.82747900       0.97276000
