19
smiles: [C:1]([O:2][H:19])([H:8])([H:9])[H:10].[C@:3]1([C:4]([H:12])([H:13])[H:14])([H:11])[C:5]([H:15])([H:16])[C:6]([H:17])([H:18])[O:7]1
C       -1.78421400      -1.07992700       2.27210100
O       -0.46441300      -0.94962500       1.78817100
C        0.27639300       0.76085400      -1.30418600
C       -0.23737100       1.75371800      -0.29405200
C        1.75642100       0.35156300      -1.24899600
C        1.20679300      -1.07259900      -1.12767300
O       -0.13865800      -0.58920400      -1.01492900
H       -2.39842500      -0.20134300       2.04403900
H       -1.71855900      -1.17810400       3.35517600
H       -2.28341000      -1.97172000       1.87648800
H       -0.04856200       1.04379500      -2.31308700
H        0.08954600       1.48200400       0.71148900
H       -1.32853700       1.77818900      -0.30618500
H        0.13068800       2.75613800      -0.52583300
H        2.27158900       0.70909000      -0.35771100
H        2.35664400       0.57144100      -2.12960400
H        1.33833500      -1.69168600      -2.02089500
H        1.50932400      -1.64592100      -0.24817600
H       -0.49331200      -0.86661400       0.83472500
