19
Extracted from Q-Chem output
C      -1.609293     -0.654122      1.816458
O      -0.285190     -0.358236      1.457286
C       0.004024      0.577134     -0.704307
C      -0.465225      1.841862     -0.117356
C       1.438033      0.252931     -0.861441
C       1.365212     -1.209974     -1.287388
O       0.302647     -1.674593     -0.541055
H      -2.088187      0.252065      2.198643
H      -1.646256     -1.411244      2.607397
H      -2.186619     -1.028311      0.962111
H      -0.676669      0.072570     -1.377492
H       0.163304      2.191848      0.696868
H      -1.506485      1.790867      0.195868
H      -0.417934      2.564615     -0.947802
H       1.918988      0.325723      0.118242
H       1.923232      0.999860     -1.509512
H       1.171648     -1.278322     -2.373743
H       2.308035     -1.744628     -1.103178
H       0.043041     -1.065716      0.800043
