11
Extracted from Q-Chem output
C      -1.510980     -0.492533      0.047830
C       0.655905      0.612568      1.008924
C       1.656594      0.131277      0.018570
O       0.711351     -0.147835     -1.022374
C      -0.289605      0.380103     -0.123355
H      -2.196589     -0.033217      0.759934
H      -2.015387     -0.611924     -0.911179
H      -1.225745     -1.478055      0.415426
H       2.179303     -0.766585      0.376823
H       2.414871      0.877512     -0.249335
H      -0.582400      1.399040     -0.440379
