16
Extracted from Q-Chem output
C      -2.048221      0.402930      0.086044
C      -0.924967     -0.537824     -0.333326
C       0.322641     -0.346929      0.504951
C       1.614002     -0.937489      0.047657
C       1.195453      0.865830      0.273689
O       0.991225      1.362647     -0.992404
H      -1.750483      1.444570     -0.044578
H      -2.311475      0.258432      1.136829
H      -2.947205      0.232142     -0.508725
H      -1.255014     -1.576172     -0.235006
H      -0.685804     -0.381876     -1.386666
H       0.131858     -0.511473      1.563734
H       2.180424     -1.553663      0.737725
H       1.696596     -1.178969     -1.005118
H       2.295159      0.203752      0.295361
H       1.570721      2.119171     -1.089741
