9
smiles: [C:1](=[C:2]([O:3][H:9])[H:7])([H:4])[H:6].[H:5][H:8]
C       -0.83938300      -0.75842000       0.23497700
C        0.47720900      -0.64990300       0.18056200
O        1.24190400      -0.48358300       1.29203400
H       -1.36896600      -0.71835900       1.17792400
H       -0.67577300       2.03422500      -1.07334500
H       -1.40373500      -0.88859600      -0.67644100
H        1.01684800      -0.68869500      -0.76220200
H       -0.67471300       2.67135800      -1.45864100
H        2.16450900      -0.42178800       1.04547500
