12
Extracted from Q-Chem output
C      -1.743426      0.320198      0.181372
C      -0.275052      0.089853      0.041429
C       0.250278     -0.949253     -0.601774
O       1.599972     -1.100796     -0.692645
C       1.723379      1.248065      0.768724
O       2.824625      1.563312      0.970140
N       0.542963      1.051729      0.640711
H      -2.030728      0.345460      1.234804
H      -2.028479      1.277309     -0.260602
H      -2.307603     -0.470565     -0.312523
H      -0.376333     -1.698711     -1.069858
H       1.813529     -1.896852     -1.178335
