14
smiles: [C:1]1([H:9])=[C:7]([H:14])[N:6]=[C:5]([H:13])[O:4][C:3]([H:12])=[C:2]1[H:10].[H:8][H:11]
C       -1.13503900      -0.41359000      -0.59666800
C       -0.49054500       0.82173400      -0.99323400
C        0.66153700       1.24329500      -0.47732600
O        1.29958300       0.56809900       0.54830400
C        1.68417000      -0.69103700       0.12204700
N        0.90721100      -1.64250500      -0.12764800
C       -0.47466500      -1.49165500      -0.14679700
H       -0.91474300       0.81125700       2.26232900
H       -2.20787600      -0.49305600      -0.72868000
H       -0.96228000       1.44596400      -1.74278400
H       -1.40779600       1.01302000       2.78247400
H        1.16905400       2.14926900      -0.78800200
H        2.76235400      -0.81204800       0.05544300
H       -1.01770700      -2.39475700       0.10556400
