11
Extracted from Q-Chem output
C      -1.957052      0.446266      0.281884
N       0.264327     -1.003250     -0.458920
N       1.590574     -1.371294     -0.679250
C       2.306378     -0.396928     -0.273840
O       1.572588      0.636619      0.218970
C       0.325386      0.170607      0.063295
O      -0.635713      0.967642      0.459507
H      -2.146845      0.253430     -0.774181
H      -2.074688     -0.479818      0.844736
H      -2.627051      1.213797      0.658382
H       3.378917     -0.300610     -0.275718
