9
Extracted from Q-Chem output
O      -1.605599      1.635959      0.670886
C      -0.798245      0.815233      0.366965
C      -0.758960     -0.583832      0.141686
N       0.610078     -0.983715     -0.148480
C       1.278437      0.137414     -0.191461
O       0.592080      1.205536      0.122745
H      -1.468832     -1.320951      0.472224
H      -0.140836     -1.122661     -1.004677
H       2.318403      0.236516     -0.463978
