13
Extracted from Q-Chem output
N       2.719938     -0.943702      1.283553
C       2.051403     -0.458822      0.486633
C       1.180161      0.182149     -0.478096
C       0.416174     -0.656229     -1.496703
C      -1.022590     -0.520963      0.811979
C      -1.326983      0.786995      0.142627
N      -0.236255     -0.052772     -0.293251
H       1.426139      1.229853     -0.637260
H       0.159330      0.015050     -2.324166
H      -1.637531     -1.382969      0.590024
H      -0.536871     -0.506653      1.779871
H      -2.160031      0.843527     -0.545690
H      -1.060475      1.704140      0.652419
