13
Extracted from Q-Chem output
N       2.433206      0.617389      1.544368
C       1.845627      0.450617      0.573256
C       1.061045      0.273308     -0.650813
C       0.600339     -1.118327     -0.949632
C      -1.191384     -0.708921      0.173760
C      -1.029429      0.648388      0.714231
N      -0.364262      0.521743     -0.560918
H       1.474885      0.870945     -1.460734
H       0.253882     -1.078578     -1.991945
H      -2.063163     -0.944784     -0.416838
H      -0.764011     -1.513125      0.746223
H      -1.863366      1.338073      0.654081
H      -0.415042      0.752801      1.604641
