19
smiles: [C:1]([C:2]([C@:3]1([H:14])[C@:4]2([H:15])[C@@:5]1([H:17])[O:6][C:7]2([H:18])[H:19])([H:11])[H:12])([H:8])([H:9])[H:10].[H:13][H:16]
C        2.27678100       0.38014600       0.02831800
C        1.15602200      -0.38633700       0.72120200
C       -0.12493100       0.40605500       0.80478600
C       -1.40635200      -0.37127800       0.96365300
C       -1.07567400       0.30646900      -0.33694800
O       -2.13726800       1.24246600      -0.21219000
C       -2.57367900       0.59594200       1.00488200
H        1.99964100       0.64206600      -0.99495000
H        2.50044500       1.30910600       0.55755100
H        3.19463400      -0.20899200      -0.01123700
H        1.46947900      -0.67326500       1.72963500
H        0.96461300      -1.32344500       0.18696100
H        1.35539000      -1.33648300      -2.43980800
H       -0.05253000       1.37418600       1.29631500
H       -1.43282100      -1.42029700       1.22162000
H        1.17999900      -1.84052100      -2.95899500
H       -0.83485500      -0.07526600      -1.32157500
H       -2.62597500       1.29013700       1.84868000
H       -3.54443800       0.11835600       0.85305400
