10
Extracted from Q-Chem output
O      -1.951744     -0.937303      0.196372
C      -0.710941     -0.450037      0.087959
C      -0.361952      0.965850     -0.177217
N       0.899992      1.100091     -0.221089
C       1.422341     -0.236449      0.018080
N       0.333042     -1.161688      0.203209
H      -2.594719     -0.235436      0.076385
H      -1.053293      1.791508     -0.320852
H       2.064386     -0.215938      0.903242
H       2.043966     -0.534592     -0.830937
