9
Extracted from Q-Chem output
N      -0.828038      1.337884      1.305137
C      -1.220527      0.394155      0.696749
N       0.223334     -0.942646      0.100976
C       1.050577     -0.445802     -0.849765
O       2.255135     -0.574361     -0.901382
H      -1.431234      2.067129      1.663077
H      -1.254180     -0.591040      0.133967
H       0.722777     -1.375774      0.872569
H       0.506159      0.112359     -1.639139
