16
smiles: [C:1]([C:2]1([H:10])[C:3]([H:12])=[C:4]([H:13])[C:5]([H:14])=[C:6]1[H:16])([H:7])([H:8])[H:9].[H:11][H:15]
C        1.81656000      -0.14427500       0.20260900
C        0.45239900      -0.48268500       0.80602600
C       -0.49466300      -1.14152300      -0.15554100
C       -1.63200600      -0.44149000      -0.22419400
C       -1.53234900       0.72114900       0.66483700
C       -0.33536700       0.71260600       1.26141000
H        2.45479400       0.35467200       0.93381800
H        1.69717700       0.51866200      -0.65626300
H        2.32859700      -1.04798200      -0.13268300
H        0.60530200      -1.15168100       1.66508100
H       -0.29505700       0.82800300      -2.56172000
H       -0.25951100      -2.04714500      -0.69860500
H       -2.49392900      -0.68040900      -0.83290300
H       -2.31169100       1.45824800       0.80573800
H       -0.02357800       1.16770400      -3.16609900
H        0.03780500       1.44008200       1.96979800
