14
smiles: [H:10][H:13].[O:1]([C:2]([C:3]1=[C:6]([H:14])[O:5][C:4]1([H:11])[H:12])([H:8])[H:9])[H:7]
O        1.39499200       1.14162800       0.62891900
C        1.19606900      -0.12635600       0.01720300
C       -0.17462700      -0.18966500      -0.52363600
C       -0.95899400       0.57135600      -1.56147900
O       -2.10123100      -0.28891800      -1.24832800
C       -1.28350600      -0.89977600      -0.32659500
H        2.32058100       1.22427600       0.86434900
H        1.33109800      -0.94027600       0.74033100
H        1.92732800      -0.27423100      -0.78867000
H       -0.01151200      -0.00203300       2.70088400
H       -1.19297400       1.61179600      -1.33764700
H       -0.66476900       0.44572700      -2.60428500
H       -0.18522500      -0.51222100       3.21459600
H       -1.64034200      -1.71848100       0.28457000
