14
Extracted from Q-Chem output
O       2.088665      0.964330      0.609184
C       1.432296     -0.093328     -0.094853
C      -0.027606      0.050950     -0.017487
C      -1.065900      0.650070     -0.939135
O      -2.002087     -0.408396     -0.507695
C      -1.071103     -0.877936      0.341358
H       3.029663      0.907266      0.429865
H       1.723521     -1.063707      0.330146
H       1.763751     -0.085355     -1.144501
H      -0.782258      0.068961      1.276365
H      -1.495748      1.626180     -0.686876
H      -0.886469      0.587480     -2.016324
H      -1.629703     -0.400169      1.760126
H      -1.072181     -1.913741      0.670164
