12
Extracted from Q-Chem output
C      -1.664980      0.923820      0.148217
C      -0.341971      0.296909     -0.109086
C      -0.112555     -0.950094     -0.555836
C       1.216555     -1.548714     -0.705238
C       1.755457     -0.203326     -0.451883
C       1.007938      0.832949     -0.036991
H      -1.724086      1.305958      1.170301
H      -1.838416      1.766388     -0.525843
H      -2.462498      0.194197     -0.001139
H       1.438635     -1.958343     -1.685868
H       1.460449     -2.246168      0.093259
H       1.379644      1.817649      0.213789
