20
Extracted from Q-Chem output
C       3.038051      0.065966      0.018050
C       1.577659     -0.323575      0.199031
C       0.662930      0.445363     -0.736366
N      -0.732476      0.077809     -0.515008
C      -1.848890      0.985666     -0.827582
C      -1.532782      0.742115      0.597270
C      -2.433001     -0.278373      1.243187
H       3.190044      1.127198      0.226788
H       3.379081     -0.125282     -1.002498
H       3.680649     -0.500259      0.693025
H       1.456627     -1.398777      0.026141
H       1.250720     -0.124685      1.222652
H       0.918865      0.264470     -1.786403
H       0.730359      1.515405     -0.539765
H      -2.663494      0.466383     -1.342259
H      -1.552156      1.912453     -1.311404
H      -0.940932     -0.892223     -0.737440
H      -3.279927      0.238029      1.699971
H      -2.855537     -1.030251      0.543483
H      -1.921017     -0.816874      2.044157
