20
Extracted from Q-Chem output
C       3.156311     -0.001663     -0.237538
C       1.741280     -0.532060     -0.050337
C       0.696897      0.426543     -0.591142
N      -0.662876     -0.119858     -0.433285
C      -1.664464      0.918350     -0.683097
C      -1.758135      0.736237      0.789600
C      -2.854751     -0.238219      1.137089
H       3.292866      0.950610      0.280211
H       3.380225      0.160838     -1.294692
H       3.895563     -0.701877      0.153267
H       1.626126     -1.498885     -0.546881
H       1.548548     -0.703689      1.014212
H       0.836811      0.585807     -1.664899
H       0.780315      1.405217     -0.098886
H      -2.491120      0.554920     -1.292255
H      -1.259284      1.857900     -1.055059
H      -0.671879     -0.044022      0.756864
H      -3.757216      0.378968      1.220044
H      -3.051606     -0.999243      0.372939
H      -2.701107     -0.719331      2.102876
