14
smiles: [C:1](=[C:2]1[C:3]([H:10])([H:11])[C:4]([H:12])([H:13])[C-:5]=[O+:6]1)([H:8])[H:9].[H:7][H:14]
C       -2.10172500      -1.01736400       0.44000800
C       -0.87262500      -0.65586400       0.13672600
C        0.42923100      -0.73097000       0.87187900
C        1.40539800      -0.10163000      -0.13027300
C        0.61709600       0.27370000      -1.35844700
O       -0.62097900      -0.06245000      -1.12836400
H        0.57298700       3.68277000      -1.15984600
H       -2.31823100      -1.47146900       1.39658200
H       -2.90973000      -0.86508900      -0.26207100
H        0.37729000      -0.18104100       1.81106900
H        0.67940800      -1.76507100       1.10800900
H        1.89306800       0.80692000       0.23212900
H        2.21376900      -0.76495100      -0.44714500
H        0.59350200       3.02804000      -1.51384800
