17
Extracted from Q-Chem output
C      -1.656089      0.628014      1.083859
C       0.322280     -2.596004     -0.857606
O       0.471812     -1.345012     -0.556849
C       1.562147     -0.663458     -0.369096
C       1.510793      0.722705     -0.032580
C       0.461577      1.557431      0.065770
C      -0.984103      1.226205     -0.156359
H      -1.590148      1.311456      1.932915
H      -2.712296      0.422399      0.896013
H       1.194394     -3.220042     -0.999574
H      -0.697083     -2.925615     -0.954275
H      -1.173317     -0.306802      1.373026
H       2.497956     -1.204161     -0.457894
H       2.494369      1.135784      0.169033
H       0.682689      2.577046      0.364531
H      -1.090269      0.530235     -0.991220
H      -1.514124      2.138164     -0.442989
