16
Extracted from Q-Chem output
C       2.470419     -0.393692     -0.207206
C       1.051264     -0.031777      0.047945
C      -0.007211     -0.738268      0.426219
C      -1.182451      0.196288      0.522067
C      -2.421096     -0.216696     -0.272152
C      -0.660172      1.561418      0.114620
N       0.614325      1.322350     -0.116117
H       3.142288      0.162197      0.451757
H       2.628696     -1.457171     -0.037193
H       2.753522     -0.166018     -1.238278
H      -0.018013     -1.798752      0.632378
H      -3.202340      0.535568     -0.165782
H      -2.806768     -1.175765      0.078545
H      -2.184475     -0.314119     -1.333214
H      -1.475530      0.317609      1.575511
H       1.252546      2.048444     -0.403813
