10
Extracted from Q-Chem output
C       2.678722     -0.972948      0.930063
C       1.522241     -0.638612      0.570883
C       0.300301     -0.239548      0.175743
C      -0.141096      1.059134     -0.421329
N      -1.575588      0.888647     -0.629577
N      -1.930736     -0.229650     -0.258377
N      -0.839105     -0.938873      0.229164
H       0.352785      1.269338     -1.372443
H       0.043868      1.906849      0.241659
H      -0.968207     -1.875577      0.574421
