12
Extracted from Q-Chem output
C       2.538192     -0.264969      0.283922
C       1.118149      0.060712      0.234567
C      -0.047810      0.335495      0.203465
C      -1.475670      0.627504      0.146211
C      -2.247380     -0.410763     -0.649107
O      -3.364216     -0.748261     -0.382144
H       2.921821     -0.159779      1.299780
H       3.112766      0.395647     -0.366752
H       2.709827     -1.293312     -0.037181
H      -1.638005      1.590468     -0.352616
H      -1.919275      0.701217      1.140426
H      -1.708399     -0.833959     -1.520572
