16
smiles: [C:1]([C:2]([C@@:3]1([C:4]([H:12])([H:13])[H:14])[C-:5]=[O+:6]1)([H:10])[H:11])([H:7])([H:8])[H:9].[H:15][H:16]
C        1.49098700       0.30232500       0.57188200
C        0.62210400       0.27991900      -0.68206200
C       -0.71490800      -0.37341500      -0.44779700
C       -0.75646200      -1.79694700       0.02290800
C       -1.92863800       0.48389600      -0.31864500
O       -1.71928700      -0.04906200      -1.47043500
H        1.76983800      -0.70403100       0.88853800
H        0.97068200       0.78544700       1.40121700
H        2.41285900       0.85443100       0.38664000
H        1.14204900      -0.24714700      -1.48998000
H        0.45490900       1.30080500      -1.03305900
H       -0.18806400      -2.44993100      -0.64492600
H       -0.32192100      -1.87170800       1.02124500
H       -1.78155800      -2.16233500       0.07516400
H       -0.51565900       3.39848300       0.99042100
H       -1.03601500       2.88976700       0.83292200
