16
Extracted from Q-Chem output
C       1.683665      0.336509      0.571191
C       0.734383      0.296200     -0.620442
C      -0.671022     -0.128525     -0.265311
C      -0.876084     -1.591523      0.022844
C      -1.712432      0.798482      0.202627
O      -1.686699      0.466571     -1.110336
H       1.782075     -0.642959      1.042935
H       1.330889      1.039582      1.329025
H       2.680002      0.652009      0.258786
H       1.119831     -0.397050     -1.375702
H       0.675023      1.283001     -1.088810
H      -0.563830     -2.193581     -0.833760
H      -0.281823     -1.893768      0.887026
H      -1.922731     -1.799349      0.237787
H      -0.753934      2.071015      0.258282
H      -1.630297      1.940834      0.587067
