14
Extracted from Q-Chem output
C      -1.716951     -0.034181      0.238451
C      -0.451548     -0.638168      0.219706
N       0.459929     -1.337885      1.069401
C       0.698859      0.079944      0.990080
C       1.248365      0.651937     -0.259900
C       0.022681     -0.026352     -1.124125
O       0.084711     -0.553367     -2.229675
H      -0.786298      0.939881     -0.952157
H      -2.129432      0.483527      1.099710
H      -2.383108     -0.222397     -0.594572
H       1.102806     -1.886440      0.505658
H       0.477425      0.649326      1.881582
H       2.149371      0.183099     -0.652536
H       1.324033      1.733645     -0.299986
