9
Extracted from Q-Chem output
N      -0.842630     -0.327556     -0.340053
C      -0.793968      0.857543      0.320881
C       0.493794      1.195315      0.735271
C       1.197511      0.084314      0.271663
N       0.399869     -0.828741     -0.339584
H      -1.623088     -0.883233     -0.645644
H      -1.731352      1.385981      0.443121
H       0.621903     -1.655317     -0.867268
H       2.253241     -0.149107      0.328967
