9
Extracted from Q-Chem output
N      -0.850708     -0.652062      0.047840
C      -0.655327      0.678659      0.027345
C       0.681152      0.909449     -0.136205
C       1.322703     -0.350649     -0.331421
N       0.315428     -1.304536     -0.222674
H      -1.718516     -1.156766      0.089017
H      -1.489594      1.357639      0.123862
H       1.162144      1.873662     -0.152124
H       1.219463     -1.365470      0.550891
