14
smiles: [C:1]([H:7])([H:8])([H:9])[H:13].[C@:2]1([O:3][H:11])([H:10])[C@@:4]2([H:12])[C@:5]1([H:14])[O:6]2
C        1.43372500      -1.14328300       1.74301300
C       -0.56975300       0.96914000      -0.46681500
O        0.78170800       1.17904400      -0.68348500
C       -1.42756400       1.11395000      -1.67630600
C       -1.22142600      -0.19598500      -1.16649300
O       -2.53556300       0.36862900      -1.16273400
H        2.16251300      -1.27691000       0.94500400
H        1.54921700      -0.15216900       2.17917100
H        1.59543900      -1.89857900       2.51062400
H       -0.96556800       1.28772800       0.49801800
H        1.27745100       0.76505800       0.02470700
H       -1.37943400       1.57481700      -2.64683900
H        0.42836800      -1.24633800       1.33743000
H       -0.94642700      -1.14130600      -1.60039800
