17
Extracted from Q-Chem output
C      -1.017726      1.255002      0.580665
C      -0.478711     -0.155654      0.714927
C      -1.071311     -0.925790     -1.241261
C       0.089047     -0.913602     -0.441050
C       1.526086     -0.221599     -0.874245
C       1.972335      0.186657      0.428103
C       1.320133      0.260540      1.491872
H      -2.081948      1.284837      0.344402
H      -0.887297      1.783017      1.526523
H      -0.474082      1.818176     -0.179564
H      -1.017191     -0.771374      1.432547
H      -1.515182     -1.841016     -1.615453
H      -1.504190      0.001562     -1.593219
H       0.366246     -1.916817     -0.117810
H       1.374524      0.616768     -1.556458
H       2.124039     -0.982579     -1.372306
H       1.297295      0.524264      2.531946
