14
Extracted from Q-Chem output
O       1.612988     -1.505001     -0.121680
C       1.496146     -0.293123     -0.910709
C       1.054930      0.218841      0.398572
C      -1.049462      1.385675      0.453259
C      -0.402701      0.012390      0.634938
O      -0.998574     -0.960835     -0.250738
H       0.743502     -1.931066     -0.192037
H       0.804909     -0.416043     -1.746403
H       2.486507      0.010788     -1.237663
H      -0.642771      2.102117      1.165495
H      -0.880459      1.757256     -0.559309
H      -2.126912      1.309291      0.611574
H      -0.552962     -0.325420      1.665923
H      -1.885033     -1.164105      0.051651
