12
Extracted from Q-Chem output
N      -0.119356      1.699470     -0.317928
C       0.227334      0.546082      0.059444
C       1.537764     -0.075195      0.444417
O       1.239973     -1.441201      0.690347
N      -0.130392     -1.670037      0.524343
C      -0.711791     -0.581158      0.189184
N      -2.048146     -0.421073     -0.004516
H       1.944120      0.378954      1.352696
H       0.665861      2.344307     -0.365978
H       2.275789     -0.001278     -0.358242
H      -2.302287      0.405612     -0.519129
H      -2.592552     -1.247157     -0.177485
