21
Extracted from Q-Chem output
C       2.420417     -1.447308     -0.492425
O       2.028863     -0.556564      0.538081
C       1.562031      0.624943      0.100928
C      -0.660025      0.417017      0.049737
C      -1.101455      1.825929      0.367257
C      -1.260204     -0.093681     -1.253495
C      -0.813112     -0.570915      1.174170
H       3.050527     -0.931487     -1.219414
H       1.541338     -1.852452     -1.003408
H       2.967408     -2.263618     -0.022495
H       0.565040      0.583141     -0.554317
H       1.413966      1.274051      0.965535
H      -0.764542      2.143437      1.355175
H      -2.194085      1.904325      0.345619
H      -0.710780      2.535808     -0.367871
H      -0.884256     -1.087167     -1.506563
H      -1.041707      0.575681     -2.089058
H      -2.349578     -0.165595     -1.162183
H      -0.257228     -1.490521      0.977915
H      -1.867698     -0.843360      1.298122
H      -0.452427     -0.167385      2.120966
