11
Extracted from Q-Chem output
O       2.267456     -1.086271     -0.424804
C       1.234456     -0.582683     -0.141942
O       0.160259     -1.442948      0.144747
C      -1.078185     -0.968403      0.125390
C      -1.431664      0.325670     -0.083825
C      -0.482514      1.372697     -0.153973
C       0.915285      0.878057     -0.020546
H      -1.797591     -1.765006      0.298836
H      -2.494340      0.538572     -0.125321
H       1.619818      1.439822     -0.636635
H       1.183843      1.173881      1.007319
