19
Extracted from Q-Chem output
C      -3.319008      0.397245      0.089356
C      -2.050676      0.077693     -0.690048
C      -0.789947      0.591644      0.004565
C       0.462270      0.310004     -0.781110
C       1.451000     -0.426457     -0.362089
C       2.438979     -1.155075      0.072330
C       3.620276     -0.625417      0.835223
H      -3.290797     -0.051079      1.085578
H      -3.443836      1.475598      0.216271
H      -4.206650      0.017218     -0.419309
H      -1.960954     -1.003370     -0.832225
H      -2.112623      0.513671     -1.692586
H      -0.703711      0.141834      0.996922
H      -0.882191      1.673599      0.154768
H       2.414356     -2.223425     -0.129930
H       0.529332      0.746028     -1.776257
H       3.536958      0.450083      0.988150
H       4.550649     -0.826911      0.298785
H       3.697255     -1.108319      1.812386
