15
Extracted from Q-Chem output
C      -0.035333     -1.554244     -0.555813
C      -0.409137     -0.173821     -0.092072
C       0.393231      0.989687     -0.646580
C       1.819187      0.894672     -0.333677
C       2.984032      0.805731     -0.071644
C      -1.386362      0.045725      0.740006
C      -2.360417      0.267937      1.573169
H      -0.135743     -1.632689     -1.642166
H       1.006870     -1.768550     -0.307942
H      -0.668425     -2.309615     -0.094088
H      -2.189857      0.280169      2.643986
H       0.277303      1.018691     -1.735450
H      -0.000735      1.929250     -0.257124
H       4.019762      0.731411      0.161613
H      -3.371097      0.445865      1.222793
