15
Extracted from Q-Chem output
C      -0.162979     -1.468668     -0.393806
C      -0.501528     -0.054636     -0.034184
C       0.366152      1.041849     -0.615974
C       1.796334      0.865568     -0.358781
C       2.959690      0.698184     -0.132585
C      -1.523952      0.228687      0.848402
C      -2.502748     -0.031854      1.669381
H       0.292994     -1.513843     -1.385257
H       0.562828     -1.885372      0.309006
H      -1.057940     -2.089874     -0.362350
H      -0.583935      0.689463      1.381709
H       0.204654      1.043104     -1.700055
H       0.038136      2.016840     -0.250913
H       3.995529      0.555763      0.067612
H      -3.518436     -0.100901      1.277738
