12
Extracted from Q-Chem output
O       0.723992     -0.806720      1.514723
C       1.173511     -1.079825      0.265357
C       0.703792     -0.500262     -0.833242
C      -0.391640      0.490830     -0.946815
O      -1.598293      0.276125     -0.220281
C      -0.814491      1.403630      0.118867
H       1.966332     -1.818949      0.197222
H       1.160370     -0.816576     -1.762430
H      -0.567939      0.824585     -1.966875
H       1.174108     -1.361773      2.151175
H      -0.325277      1.353184      1.085227
H      -1.243044      2.365850     -0.150456
