19
Extracted from Q-Chem output
C       2.014561     -0.096864      0.538777
C       0.685190     -0.323398     -0.159605
O      -0.164910     -1.035475      0.725824
C       0.054451      0.988078     -0.585934
C      -1.429218      1.166817     -0.671955
C      -0.651518      1.847140      0.416754
C      -0.806682     -2.144723      0.152937
H       2.694758      0.470883     -0.099346
H       2.483514     -1.048688      0.791510
H       1.857112      0.466666      1.459945
H       0.852908     -0.933956     -1.057414
H      -0.762593      1.444659      1.415423
H       0.637452      1.513843     -1.335080
H      -2.058473      0.339053     -0.374230
H      -1.823657      1.768299     -1.480377
H      -0.514949      2.919218      0.365370
H      -0.083284     -2.908934     -0.158895
H      -1.415198     -1.867744     -0.716719
H      -1.459259     -2.570526      0.914940
