19
Extracted from Q-Chem output
C       2.370142      0.009894      0.201383
C       0.928410     -0.274771     -0.158633
O       0.330448     -1.025327      0.930131
C       0.114510      1.013396     -0.320327
C      -1.177773      1.051395     -1.079876
C      -1.192183      0.936361      0.405610
C      -1.462671     -1.551865      0.429450
H       2.844111      0.565336     -0.610973
H       2.928182     -0.911482      0.368692
H       2.421692      0.618813      1.106582
H       0.879403     -0.924911     -1.036698
H      -0.195888     -0.295499      1.365226
H       0.719411      1.916663     -0.328255
H      -1.451078      0.204282     -1.712268
H      -1.429497      2.000509     -1.545203
H      -1.539930      1.790599      0.978593
H      -0.997775     -2.523510      0.307862
H      -1.899056     -1.147698     -0.469161
H      -2.080255     -1.457837      1.309795
