13
smiles: [C-:6]#[O+:7].[O:1]([C:2](=[C:3]1[C:4]([H:9])([H:10])[C:5]1([H:11])[H:12])[H:8])[H:13]
O        1.65255500       0.97903000      -1.12203600
C        1.24061700      -0.31656900      -1.07623800
C        0.23410100      -0.77120700      -0.36584300
C       -0.85637700      -0.47875700       0.56882900
C       -0.59935400      -1.89263000       0.04882100
C       -0.06744300       2.92078600       0.82894900
O       -0.70664100       3.49720500       1.55095800
H        1.85032400      -0.95189200      -1.70655200
H       -1.73895800       0.03438400       0.20211900
H       -0.61827600      -0.27791800       1.60803800
H       -1.31467800      -2.30074800      -0.65668100
H       -0.19568500      -2.61539600       0.74922700
H        1.08244400       1.50036500      -0.54995300
