13
Extracted from Q-Chem output
N       2.446557     -0.054115      0.414117
C       1.214746     -0.083845      0.160764
C       0.143755     -0.979939      0.411099
C      -0.985095     -0.610286     -0.468824
C      -0.710092      0.826264     -0.644564
O       0.557384      1.052994     -0.533555
H       2.880244      0.830706      0.183033
H       0.316776     -1.965246      0.811520
H      -0.642789      0.331843      1.410015
H      -1.991005     -0.845353     -0.128242
H      -0.862447     -1.012872     -1.490484
H      -1.082425      0.984751      1.132106
H      -1.294947      1.566011     -1.179027
