9
Extracted from Q-Chem output
O       0.463920      1.240806      0.205435
C       1.358524      0.499805     -0.361522
O       1.171735     -0.647486     -0.767413
C      -0.792571     -0.839519     -0.252510
C      -0.854259      0.460580      0.289315
N      -1.939080      0.738684      0.728557
H       2.341740      0.978128     -0.463377
H      -1.194643     -1.020358     -1.241574
H      -0.694506     -1.687338      0.413721
