13
Extracted from Q-Chem output
C      -0.911366     -0.982415     -0.072350
C      -0.002999      0.212542      0.191881
C       1.388070      0.027756     -0.389044
O       0.159921      0.442758      1.563610
C      -1.114190      2.309070     -0.899361
N      -0.610236      1.378208     -0.414718
H      -0.471546     -1.870178      0.381515
H      -1.899073     -0.813246      0.360585
H      -1.032508     -1.147419     -1.142697
H       1.997160      0.902579     -0.166951
H       1.334505     -0.108378     -1.468418
H       1.847990     -0.849684      0.064412
H      -0.704684      0.536844      1.972237
