13
Extracted from Q-Chem output
C      -0.926910     -0.933803     -0.075270
C       0.065677      0.151463      0.236549
C       1.404870      0.011329     -0.430928
O       0.217330      0.494137      1.512237
C      -0.440103      1.856162     -0.834137
N      -1.410089      1.654885     -0.204283
H      -0.472524     -1.878797      0.240188
H      -1.867675     -0.790456      0.450737
H      -1.126480     -0.979274     -1.142766
H       2.032087      0.873658     -0.228215
H       1.295471     -0.117974     -1.503436
H       1.869074     -0.883305     -0.000666
H      -0.642712      0.556195      1.942283
