16
Extracted from Q-Chem output
C      -1.674343     -0.217452     -1.069013
C       0.598239     -0.006899     -0.111800
C       1.855773     -0.798464     -0.265636
C       0.499547      1.381925      0.440981
C      -0.176997      0.205111      1.056812
O      -1.631544      0.103033      0.747788
H      -1.250011     -1.148428     -1.410584
H      -2.757486     -0.236877     -0.957435
H      -1.315939      0.650221     -1.599260
H       2.615807     -0.549379      0.490230
H       2.314724     -0.620572     -1.241896
H       1.661628     -1.872649     -0.192806
H       1.321332      1.815912      1.015581
H      -0.103192      2.134642     -0.066399
H      -0.009278     -0.124090      2.077770
H      -1.973053     -0.707227      1.153578
