11
smiles: [C:1]([N:3]=[C:2]=[O:6])([H:7])([H:8])[H:9].[C:4](#[C:5][H:11])[H:10]
C        1.67258000       0.50637200       0.17235200
C        0.67133100      -1.53326900      -0.81192600
N        1.51704400      -0.75602800      -0.49041500
C       -2.26771700       0.98092800       0.59077400
C       -2.21790800      -0.08499300       0.05361800
O       -0.07212100      -2.35944500      -1.17111600
H        0.72546300       0.87391000       0.56933700
H        2.07036100       1.24047100      -0.52846400
H        2.38188700       0.39962400       0.99266000
H       -2.31095500       1.93050600       1.07076300
H       -2.17483300      -1.03470200      -0.42602200
