17
smiles: [C:1]1([H:8])([H:9])[O:3][C:4]([H:12])([H:13])[C:5]([H:14])=[C:6]([H:15])[C:7]1([H:16])[H:17].[C:2]([H:10])[H:11]
C       -1.16579800       0.02252000       0.15816800
C       -0.70213500      -2.37748200      -0.20849400
O       -0.18410100      -0.88616400      -0.29354100
C        1.09692900      -0.58953600       0.20925200
C        1.44093300       0.86780800       0.12244500
C        0.53337800       1.78680900      -0.17216900
C       -0.90717800       1.42058400      -0.38310400
H       -1.17742800       0.04574700       1.25805200
H       -2.12485900      -0.36851200      -0.18250200
H       -0.27688500      -2.67432900       0.77281500
H        0.01673800      -2.83362800      -0.92067800
H        1.18666100      -0.93251200       1.25308900
H        1.79992800      -1.17929400      -0.38363700
H        2.47474700       1.14009600       0.30849400
H        0.81881500       2.83002400      -0.25843200
H       -1.15653800       1.46632300      -1.44823600
H       -1.55925100       2.13820900       0.12343200
