13
smiles: [C:1]([C:2]([O:3][H:11])=[C:4]([H:12])[H:13])([H:7])([H:8])[H:9].[C:5]=[N:6][H:10]
C       -1.19261800      -0.32046900      -0.74844100
C       -0.40708900       0.58325500       0.14833400
O       -0.75810500       0.54712600       1.46700000
C        0.57180000       1.38524900      -0.24863500
C        2.43998600      -2.47082200       0.92899600
N        2.02597000      -1.42400200       0.63912900
H       -2.25719700      -0.07066900      -0.71092600
H       -0.85768500      -0.23406200      -1.77983000
H       -1.08032600      -1.36346800      -0.43747000
H        1.67079800      -0.52710600       0.39064900
H       -1.47665600      -0.07367900       1.59512100
H        1.09784500       2.01182100       0.45857400
H        0.85784100       1.42152100      -1.28927300
