18
Extracted from Q-Chem output
C      -1.579397      0.970974      0.472451
C      -0.686945     -0.170703      0.070739
C      -1.264352     -1.473410      0.020603
C       0.750616     -0.080702      0.488305
C       1.875475     -0.507632     -0.396100
C       1.708505      0.940868     -0.032415
H      -1.132858      1.934371      0.230519
H      -2.554864      0.892414     -0.005989
H      -1.725920      0.896879      1.553698
H      -0.438254      0.375413     -1.435652
H      -0.877951     -0.621236     -1.129003
H      -0.624663     -2.343325      0.015017
H      -2.338125     -1.588761      0.032745
H       0.837113     -0.344559      1.538021
H       2.691011     -1.065990      0.043094
H       1.624438     -0.786741     -1.412662
H       1.360957      1.605270     -0.812887
H       2.404429      1.380145      0.669721
