16
Extracted from Q-Chem output
C       2.707347     -0.179112      0.207071
C       1.662090      0.311173     -0.689357
C       0.857303      0.891364     -1.451975
C      -0.019632     -0.392283     -0.664079
N      -0.827408      0.163193      0.386270
C      -2.173251     -0.382168      0.485263
C      -1.942060      0.982075     -0.041657
H       3.570641      0.479272      0.105457
H       3.018563     -1.194865     -0.041883
H       2.372412     -0.144085      1.244843
H      -0.568900     -0.698237     -1.559769
H       0.449514     -1.307087     -0.282135
H      -2.545064     -0.531312      1.491765
H      -2.460188     -1.148337     -0.229618
H      -2.060850      1.138701     -1.108795
H      -2.146527      1.846812      0.576997
