15
Extracted from Q-Chem output
C      -1.423642     -0.096237     -0.241893
C      -0.432604     -0.609711      0.814398
O       0.325361     -1.561686      0.114817
C       0.640187     -0.852442     -1.102528
C       1.726047      0.791886      1.000573
C       0.338875      0.782994      0.594209
C      -0.118332      0.446942     -0.863013
H      -1.971929     -0.869004     -0.781320
H      -2.088085      0.685846      0.119579
H      -0.698333     -0.966320      1.805547
H       0.282486     -1.417785     -1.965127
H       1.734508      1.085170      2.067226
H       1.720872     -0.706914     -1.157263
H      -0.289311      1.552906      1.056000
H      -0.103917      1.195071     -1.651374
