15
Extracted from Q-Chem output
C      -1.079212     -1.476652     -0.536327
C      -1.140239     -0.014984     -0.238927
C      -0.039469      2.083429      0.131431
N      -0.078965      0.758309     -0.054734
C       1.233532      0.098740     -0.041209
C       1.485544     -0.587572      1.225662
N       1.711074     -1.138559      2.204784
H      -0.645309     -1.711512     -1.517233
H      -2.096918     -1.864527     -0.550641
H      -0.537231     -2.060759      0.214770
H      -2.089441      0.498990     -0.205009
H       0.896257      2.540008      0.397563
H      -0.972708      2.620520      0.168486
H       1.288040     -0.624296     -0.853674
H       1.999463      0.852409     -0.206770
