15
Extracted from Q-Chem output
C      -1.394364     -1.236016     -0.174932
C      -1.048134      0.172204     -0.519826
C      -0.203814      1.733965      0.565448
N       0.160473      0.700569     -0.243483
C       1.470924      0.117526     -0.425292
C       1.868777     -0.761182      0.685039
N       2.153723     -1.459994      1.548349
H      -1.457225     -1.374001      0.911040
H      -0.626987     -1.933964     -0.526903
H      -2.347746     -1.529542     -0.611540
H      -1.738951      0.807031     -1.052391
H       0.164642      2.738569      0.375293
H      -0.758666      1.522882      1.467042
H       1.496013     -0.455242     -1.354709
H       2.195753      0.930741     -0.504962
