19
smiles: [C:1]([C:2](=[C:3]([H:13])[H:14])[H:11])([H:8])([H:9])[H:10].[C:4]1([H:15])=[C:7]([H:19])[O:6][C:5]1([H:16])[H:17].[H:12][H:18]
C        2.05814900       0.60801800      -0.13940100
C        2.15291300      -0.32471500       1.02563200
C        1.20725500      -0.50963400       1.93353400
C       -2.53656900      -0.25845900       0.88838500
C       -1.70434800      -0.55622700      -0.32942900
O       -1.48453500       0.88336200      -0.46633600
C       -2.26372100       1.02326300       0.65896400
H        1.10311800       1.13499100      -0.15134100
H        2.85992300       1.35038300      -0.10994300
H        2.16216000       0.06530500      -1.08255400
H        3.08056300      -0.88575700       1.11432800
H       -0.05928200      -0.09283200      -3.30152700
H        0.26455100       0.02635200       1.88845800
H        1.33928800      -1.20327200       2.75491400
H       -3.09453600      -0.83083800       1.60718100
H       -2.22086100      -0.94552000      -1.20735400
H       -0.75510000      -1.07016000      -0.17462600
H       -0.24046200       0.41044800      -2.78359500
H       -2.47077000       2.00025000       1.07448100
