12
smiles: [C:1]([N:4]([H:10])[H:11])([H:7])([H:8])[H:9].[N:2]#[C:3][C:5](=[O:6])[H:12]
C        1.48589000      -0.73662600      -0.01556500
N       -0.02355900       2.39267500       1.01753300
C       -0.79098600       1.78518600       0.41934200
N        0.05328600      -0.99408700       0.02654400
C       -1.74681100       1.00417200      -0.38744300
O       -2.78960400       0.62656700       0.05203300
H        1.77765000      -0.48692800      -1.03714000
H        1.71563000       0.13162600       0.60439900
H        2.11886300      -1.56851000       0.32182100
H       -0.18669400      -1.78673900      -0.55239600
H       -0.24585500      -1.21217400       0.96683500
H       -1.41396500       0.80483900      -1.41781400
