17
smiles: [C:1]([C@@:2]1([C:3](=[C:4]([H:13])[H:14])[H:11])[C:6]([H:16])([H:17])[O:7]1)([H:8])([H:9])[H:10].[O:5]([H:12])[H:15]
C       -0.87024400      -1.27931000       0.49474900
C       -0.83851500       0.19127200       0.18205400
C        0.22354500       1.02376700       0.80161600
C        1.25808700       0.56885300       1.49139100
O        1.71400800      -0.45202600      -1.73979100
C       -1.43895700       0.67730700      -1.06537700
O       -2.11861100       0.83152400       0.16360300
H        0.03020400      -1.77465800       0.12706200
H       -0.93993200      -1.44131300       1.57186400
H       -1.73712400      -1.73961400       0.02217800
H        0.09721500       2.09280900       0.65377000
H        1.68271000       0.09746300      -0.95568700
H        1.41579100      -0.48872900       1.66844300
H        1.99280700       1.24754500       1.90565000
H        2.63110700      -0.44834400      -2.01704900
H       -1.87303200      -0.04132000      -1.75606100
H       -1.07457900       1.59654700      -1.51682600
