14
Extracted from Q-Chem output
C      -1.692453      0.299106      0.460475
C      -0.482624     -0.460378      0.023443
C      -0.375678     -1.777062     -0.267061
O       0.887122     -2.106949     -0.633346
C       1.712526     -0.997351     -0.606565
C       0.855338     -0.012985     -0.204527
N       1.425436      1.325420     -0.070551
H      -2.561564     -0.356967      0.515071
H      -1.942205      1.106310     -0.234927
H      -1.563063      0.745637      1.451285
H      -1.108086     -2.570513     -0.252958
H       2.405845      1.153530     -0.335008
H       1.396838      1.699570      0.876936
H       1.025967      2.015679     -0.704924
