13
Extracted from Q-Chem output
C      -2.194005      0.299997     -0.279561
C      -0.868381     -0.370447     -0.096813
O       0.142958      0.615308      0.096426
C       1.342836      0.172403     -0.004168
N       1.479194     -1.128215     -0.200770
C       2.416090      1.112495     -0.004571
N       3.311034      1.832633      0.007793
H      -2.209053      0.914371     -1.181880
H      -2.954859     -0.472438     -0.402394
H      -2.493184      0.931117      0.566640
H       0.498207     -1.406048     -0.608035
H      -0.818169     -1.072386      0.741091
H       2.358147     -1.457077     -0.572483
