14
Extracted from Q-Chem output
C       1.029636     -0.290364     -0.132324
C       0.002788      0.391877      0.722632
C      -1.289002      0.490807      0.437968
C      -1.979548     -0.051718     -0.773611
C       2.434422     -0.235421      0.406902
O       2.767520      0.297606      1.428331
H       0.800530     -1.352588     -0.286659
H       1.071980      0.133499     -1.143737
H       0.380478      0.829794      1.639878
H      -1.922343      1.016238      1.147285
H      -2.475756      0.749800     -1.326956
H      -2.757244     -0.764995     -0.488028
H      -1.296106     -0.558435     -1.455306
H       3.188405     -0.745174     -0.229151
