13
Extracted from Q-Chem output
C      -1.450576     -1.463911     -0.070469
N      -1.164299     -0.156528      0.480775
C      -0.067161      0.370482      0.207092
C       0.577121      1.679191      0.584885
O       1.742562      1.320014     -0.182136
C       1.190128      0.059988     -0.589674
H      -1.621207     -2.165152      0.748512
H      -0.657819     -1.862066     -0.715561
H      -2.377065     -1.412046     -0.644963
H       0.799172      1.807128      1.647966
H       0.084638      2.575566      0.197681
H       1.782117     -0.790172     -0.236159
H       1.062048     -0.009030     -1.674840
