10
Extracted from Q-Chem output
O       2.176604     -0.595118      1.010212
C       1.222367     -0.181527      0.460507
O       1.301579      1.020275     -0.330841
C       0.181304      1.387564     -0.896970
C      -0.869088      0.369608     -0.507991
C      -0.200438     -0.662196      0.383261
H      -0.601585     -0.714319      1.394954
H      -1.687550      0.915992     -0.033711
H      -1.283164     -0.033508     -1.435127
H      -0.198673     -1.674564     -0.019621
