10
Extracted from Q-Chem output
O       2.246470     -0.987835      0.172724
C       1.265907     -0.324789      0.148521
O       1.183870      1.029627     -0.034395
C      -0.209515      1.237190      0.238280
C      -0.870738      0.262620     -0.679819
C      -0.189631     -0.580582      0.392751
H      -0.341709      0.301685      1.287197
H      -1.954837      0.238098     -0.635988
H      -0.456031      0.178684     -1.677547
H      -0.646201     -1.471493      0.807128
