11
smiles: [O:1]=[C:2]([C:3]([C:5]#[N:6])([H:9])[H:10])[H:8].[O:4]([H:7])[H:11]
O        1.64454000      -0.16220400      -0.06455000
C        0.72829900      -0.87472500      -0.34313700
C       -0.70713600      -0.53780700       0.04944500
O        0.42294000       2.23091200       0.93603000
C       -1.68714300      -1.12272100      -0.85640200
N       -2.43029600      -1.59865000      -1.58818300
H        1.13683600       1.63919200       0.69524800
H        0.86873800      -1.83214400      -0.87997800
H       -0.87342300      -0.93529800       1.05580400
H       -0.82130600       0.54532700       0.09967400
H        0.75175600       3.11285000       0.75722400
