11
Extracted from Q-Chem output
C       2.140723      0.004886     -0.757056
C       0.871924      0.026374     -0.151276
C       0.094244      1.130163      0.016062
C      -0.275819     -0.922651      0.233187
C      -1.141224      0.362087      0.385989
H       2.287860     -0.982134     -1.234609
H       0.292472      2.180739     -0.167394
H      -0.595372     -1.603569     -0.556544
H      -0.123806     -1.485150      1.154356
H      -1.961115      0.439463     -0.331184
H      -1.534239      0.581478      1.381366
