11
Extracted from Q-Chem output
C       2.283210     -0.174964     -0.299466
C       1.049927      0.170364     -0.138290
C       0.002285      1.088337     -0.066410
C      -0.406862     -0.782730      0.013171
C      -1.140677      0.393078      0.590684
H       2.541953     -1.092100     -0.822310
H      -0.141271      1.838511     -0.843418
H      -0.746459     -1.109238     -0.961649
H      -0.106780     -1.590576      0.670408
H      -2.116086      0.606483      0.161614
H      -1.168818      0.432809      1.677375
