11
Extracted from Q-Chem output
C      -1.027275      1.366144     -0.018210
N       0.034734      0.381045     -0.070923
C      -0.145754     -0.915421      0.190079
O      -1.172631     -1.475384      0.502059
C       1.827924     -1.736344     -0.089780
O       2.530348     -0.857281     -0.391591
H      -1.948009      0.847037      0.242780
H      -0.821416      2.124750      0.739010
H      -1.155662      1.853473     -0.986253
H       0.969313      0.669766     -0.315583
H       0.908426     -2.257782      0.198412
