15
Extracted from Q-Chem output
O       0.933767     -2.689338      1.579934
C       1.191025     -1.688522      1.054002
C      -0.806424     -0.524015     -0.717845
C      -1.343999      0.614777      0.173150
C      -0.053696      1.403757     -0.126627
C       0.612513      0.081159     -0.592190
C       1.478617     -0.557546      0.462150
H      -1.173312     -0.444959     -1.741626
H      -0.955732     -1.551964     -0.382446
H      -2.290621      1.070813     -0.114674
H      -1.404175      0.316753      1.220155
H      -0.184412      2.095607     -0.960314
H       0.422278      1.930505      0.700438
H       1.174999      0.149738     -1.525408
H       2.401538     -0.085567      0.776896
