15
Extracted from Q-Chem output
O       0.547052     -2.614317      0.967930
C       0.751193     -1.482730      0.706461
C      -0.792720     -0.765563     -0.447575
C      -1.284244      0.489530      0.241143
C      -0.147738      1.373686     -0.225866
C       0.992152      0.380516     -0.414114
C       1.582477     -0.427904      0.602412
H      -0.824388     -0.660797     -1.535549
H      -1.250501     -1.720243     -0.193666
H      -2.274427      0.835833     -0.064689
H      -1.290725      0.363800      1.324388
H      -0.385995      1.811562     -1.197800
H       0.163960      2.186579      0.437930
H       1.655260      0.642313     -1.247985
H       2.586664     -0.370586      1.002790
