13
Extracted from Q-Chem output
O      -2.336114     -0.366349     -0.259169
C      -1.152329     -0.836140      0.336460
C       0.008987      0.112929      0.127930
C      -0.136224      1.491121      0.636456
O      -1.141733      1.888214      1.173802
C       1.125280     -0.213290     -0.472035
C       2.235586     -0.522706     -1.064343
H      -2.578084      0.445504      0.197598
H      -1.287561     -0.986123      1.414911
H      -0.923627     -1.801309     -0.113733
H       2.349719     -0.387103     -2.133629
H       0.737724      2.153048      0.493540
H       3.071641     -0.928661     -0.507037
