14
Extracted from Q-Chem output
O       1.551802     -1.050703     -0.229174
C       1.336561     -0.292008      0.894874
C       0.458417      0.891103      0.623289
C      -0.299269      0.828948     -0.718517
C      -1.164785     -0.322493     -0.152931
C      -0.484193     -0.132862      1.195446
H       2.122353     -1.775418      0.029533
H       0.502777     -0.933857      1.630009
H       0.723025      1.830571      1.094655
H       0.307060      0.605839     -1.594849
H      -0.883729      1.730011     -0.898331
H      -2.232396     -0.105493     -0.126747
H      -1.011754     -1.300042     -0.612057
H      -0.969225     -0.064873      2.164713
