9
Extracted from Q-Chem output
O       1.688585     -1.093933     -0.313895
C       0.784007      1.143362     -0.142438
N      -0.452303      1.580234      0.080781
N      -1.261226      0.489590      0.222383
C      -0.586608     -0.636717      0.098019
N       0.651845     -0.234836     -0.123934
H       2.425342     -0.476612     -0.445934
H      -2.244943      0.595212      0.400056
H      -0.954598     -1.645905      0.160684
