9
Extracted from Q-Chem output
O       2.409005     -0.559614     -0.275499
C       0.626997      0.860766      0.167854
N      -0.430311      1.595355      0.422395
N      -1.415814      0.664511      0.249939
C      -0.882867     -0.520582     -0.085422
N       0.420500     -0.352168     -0.127952
H       3.121170     -1.199563     -0.459719
H      -2.386830      0.906126      0.378757
H      -1.449001     -1.417930     -0.276982
