13
Extracted from Q-Chem output
C       1.804805      0.401991      0.530596
O       0.624798     -0.221454      0.833288
C      -0.204743     -0.593781     -0.053895
C      -1.564499     -1.006713      0.351422
C      -0.112040      1.743753     -0.886754
N      -0.932021      2.251207     -1.515178
H       2.379022      0.559156      1.433401
H       0.886934      1.473898     -0.264835
H       2.328177     -0.039303     -0.316022
H       0.165174     -0.767003     -1.061490
H      -1.685741     -2.089491      0.254834
H      -1.764285     -0.712308      1.380029
H      -2.293695     -0.531503     -0.307421
