9
Extracted from Q-Chem output
N      -1.208168      0.802928     -0.155145
C       1.593453      0.672773     -0.267008
C       0.968877     -0.427611      0.092800
N      -0.036071     -1.198908      0.166615
C      -1.209080     -0.458592     -0.040119
H      -2.136065      1.171030     -0.330904
H       2.044112      1.347584      0.457374
H       2.091582     -0.781319      0.166460
H      -2.101095     -1.083660     -0.091391
