17
Extracted from Q-Chem output
O      -0.053422     -1.182329      1.153960
C       1.123822     -1.244644      0.354315
C       0.931446     -0.234043     -0.793142
C      -0.503362      0.288964     -0.590668
C      -1.106942     -0.810061      0.281712
O       0.239111      1.691122      1.287766
C      -0.536749      1.645734      0.108853
H       0.107472      0.865720      1.767067
H       1.248823     -2.263742     -0.029160
H       1.970129     -1.009203      0.999240
H       1.038337     -0.721668     -1.762175
H       1.656538      0.577126     -0.738429
H      -1.041233      0.378929     -1.537220
H      -1.426049     -1.669983     -0.323262
H      -1.950839     -0.482655      0.891761
H      -1.581325      1.914523      0.322415
H      -0.131523      2.413197     -0.555511
