12
smiles: [C-:2]#[O+:3].[C:1]([N:6](/[C:5](=[N:4]\[H:10])[H:11])[H:12])([H:7])([H:8])[H:9]
C       -1.01680300      -1.05889200      -0.08648300
C       -0.44239000       2.47902300      -0.49418400
O        0.41637800       3.03008600      -0.96420500
N        1.12998700       0.17487600       1.50779600
C        1.27180600      -0.25448200       0.32065000
N        0.33413000      -0.79423600      -0.50998100
H       -1.52897600      -0.13440100       0.19493100
H       -1.56706700      -1.50882800      -0.91059800
H       -1.05298600      -1.74398300       0.76770000
H        0.17557400       0.06610600       1.84399000
H        2.25828600      -0.18897900      -0.14092200
H        0.65173800      -1.18947700      -1.37397200
