13
Extracted from Q-Chem output
C       2.833406     -0.363258      0.257302
C       1.804821      0.185789     -0.010011
C       0.547624      0.852354     -0.343833
N      -0.620815      0.072581      0.011942
C      -0.962829     -1.191412     -0.299314
C      -1.813528      0.470399      0.520947
H       3.746946     -0.853139      0.499114
H       0.468052      1.802648      0.189537
H       0.533034      1.082867     -1.415962
H      -1.200778     -1.877710      0.497607
H      -0.838425     -1.576641     -1.312318
H      -1.871800      0.917257      1.512539
H      -2.687749      0.473200     -0.112602
