10
smiles: [C:1]([C:2]#[N+:3][O-:4])([H:8])([H:9])[H:10].[C:5](=[O:6])=[O:7]
C       -2.19461300      -0.02647100       0.01336200
C       -0.88467300      -0.47972700       0.46572800
N        0.14758000      -0.84089200       0.82248300
O        1.22758100      -1.21837100       1.19602500
C        3.06705500       0.75290100       0.16616200
O        3.99183600       0.23359700       0.62666300
O        2.14225300       1.27219600      -0.29433700
H       -2.11088500       0.93816300      -0.48784000
H       -2.62347300      -0.74468600      -0.68595700
H       -2.87248500       0.08087200       0.86051700
