13
smiles: [C:4]([O:5][H:13])[H:11].[O:1]([C:2]([C:3]([H:9])([H:10])[H:12])([H:7])[H:8])[H:6]
O       -0.48951600       1.04374700       0.36963300
C       -1.21383400      -0.13610700       0.06587200
C       -0.57610900      -0.78038600      -1.14291800
C        2.58774000       0.10676400       1.08544900
O        2.19720500       1.06189400       0.29212000
H       -0.87902000       1.45728700       1.14075400
H       -2.26520100       0.09961800      -0.14487300
H       -1.19359200      -0.83020000       0.91620200
H       -0.60390500      -0.10116900      -1.99622400
H       -1.10441000      -1.69676100      -1.41223400
H        1.66461300      -0.36942400       1.50623200
H        0.46630700      -1.02754500      -0.93671800
H        1.23640500       1.17439200       0.21794300
