11
smiles: [C:3]1(=[C:6](\[O:7][H:8])[H:11])\[C:4]([H:9])([H:10])[O:5]1.[O+:1]#[C-:2]
O       -2.78203000       2.08922800       1.15800300
C       -1.73973400       1.97563300       0.75448700
C        0.68721600      -0.78821300      -0.35082400
C       -0.19705900      -1.41089800       0.58698900
O        0.72815200      -2.14604800      -0.25735400
C        1.26976000       0.17470900      -1.02729900
O        1.00287500       1.50931300      -0.89746500
H        0.31965500       1.63646000      -0.23556700
H        0.05106800      -1.42501300       1.64399400
H       -1.24394900      -1.55543200       0.33795000
H        2.03256500      -0.03434100      -1.76396100
