11
Extracted from Q-Chem output
O      -2.138281      1.190060      0.022095
C      -0.994985      1.246075     -0.026064
C       0.125122     -0.376317     -0.210247
C      -0.252662     -1.277092      0.855424
O      -0.351723     -1.626782     -0.534371
C       1.157378      0.353851     -0.777227
O       1.393491      1.519945     -0.305004
H       0.243715      1.828046     -0.019388
H       0.519784     -1.806015      1.404532
H      -1.204700     -1.147047      1.362370
H       1.521084      0.087529     -1.775036
