11
Extracted from Q-Chem output
C      -1.343455     -0.647969     -0.078750
C      -0.258631      0.327071     -0.469502
O       0.498797      0.710403      0.770104
C       1.698656      0.406247      0.490426
C       1.940161     -0.172173     -0.855108
N       0.715185     -0.175254     -1.346027
H      -2.019953     -0.207651      0.652523
H      -1.905900     -0.909649     -0.973560
H      -0.899001     -1.556658      0.327701
H      -0.660923      1.279222     -0.828121
H       2.425620      0.611458      1.272975
