13
Extracted from Q-Chem output
N      -1.298548     -0.781333     -0.344070
C      -0.776282      0.494109     -0.460712
O       0.565888      0.528623     -0.746280
C      -1.460320      1.635158     -0.402779
C       1.420943     -0.083544      0.183512
O       1.512412     -1.472612      0.019974
H      -2.174114     -0.845005      0.144365
H      -0.636322     -1.505665     -0.118162
H      -2.531583      1.633741     -0.259410
H      -0.947658      2.574047     -0.540050
H       2.391825      0.395437      0.040508
H       1.064141      0.080584      1.203282
H       1.920918     -1.652805     -0.830528
