14
Extracted from Q-Chem output
C      -1.285041     -0.013859     -0.016035
C      -1.029424      0.639305      1.316057
O      -1.029056      1.826043      1.498907
C      -0.012240     -0.454091     -0.718567
C       1.166585      0.461581     -0.828964
C       1.257772     -0.775412      0.016432
H      -1.919444     -0.889085      0.157806
H      -0.822018     -0.052618      2.159144
H      -1.830606      0.693034     -0.644370
H      -0.207767     -1.069745     -1.588900
H       1.112288      1.414678     -0.317190
H       1.707579      0.485445     -1.765345
H       1.853718     -1.603208     -0.343770
H       1.291469     -0.648105      1.090939
