14
Extracted from Q-Chem output
C      -1.997025      0.409852     -0.036003
C      -0.863816      0.299380      0.803128
O      -0.325704      1.208465      1.494857
C       0.179969     -0.504623     -0.230014
C       1.214730      0.332169     -0.892988
C       1.573308     -0.540473      0.281204
H      -2.392570     -0.480496     -0.509959
H      -1.107293     -0.687376      1.329559
H      -2.501743      1.356620     -0.214003
H      -0.224371     -1.369612     -0.737496
H       1.191733      1.395442     -0.698440
H       1.530750      0.043651     -1.887282
H       2.141813     -1.447235      0.118857
H       1.745708     -0.019867      1.214313
