15
smiles: [C:1]([C:2](=[O:3])[H:10])([H:7])([H:8])[H:9].[C:4](=[C:5]([H:13])[H:14])([N:6]([H:11])[H:15])[H:12]
C       -1.79957200       0.65852800      -0.38952000
C       -1.58339100       1.32722200       0.93429400
O       -0.66729300       1.09597200       1.67383600
C        1.68611200      -1.19281400      -0.33582000
C        1.78331300      -0.09786700      -1.08507400
N        1.27412700      -1.25331600       0.98525600
H       -2.76694200       0.14917900      -0.38287700
H       -1.84565600       1.41485000      -1.17733300
H       -1.00412000      -0.05429900      -0.59762700
H       -2.34817100       2.08313000       1.21309800
H        0.78455400      -0.44378700       1.32897500
H        2.00050800      -2.15209300      -0.73569900
H        1.48467000       0.87766100      -0.71784700
H        2.18406600      -0.15690500      -2.08628700
H        0.85098200      -2.11724000       1.27505900
