15
Extracted from Q-Chem output
C      -1.927392     -0.071297     -0.158299
C      -0.610159      0.681543     -0.032954
O      -0.384929      1.100100      1.294427
C       0.547627     -0.171303     -0.519592
C       1.936261      0.087317     -0.103010
N       1.164758     -0.991656      0.517840
H      -2.744055      0.538178      0.228647
H      -2.143519     -0.320657     -1.200248
H      -1.888403     -0.999654      0.417400
H      -0.651518      1.593354     -0.637125
H      -0.021977      0.332676      1.756487
H       0.404037     -0.623934     -1.496748
H       2.146261      0.924017      0.551708
H       2.731660     -0.179060     -0.789519
H       1.441346     -1.899625      0.170986
