12
Extracted from Q-Chem output
C       1.871490      2.575918     -1.070457
C       1.147218      1.736619     -0.600238
C       0.300865      0.761194     -0.047900
N       0.326034     -0.478072     -0.528302
C      -0.366206     -1.562556     -0.175174
C      -1.299010     -1.497170      0.866211
C      -2.090806     -1.397602      1.768475
H       2.510673      3.320672     -1.481082
H      -0.380781      0.973485      0.761050
H       0.980934     -0.618311     -1.287239
H      -0.170187     -2.469116     -0.722914
H      -2.793399     -1.322100      2.563968
