10
Extracted from Q-Chem output
C      -1.386679      0.063758      0.120803
N      -0.403423      1.144216     -0.076145
N       0.688740      1.087195      0.527185
C       1.582023      0.159716      0.560138
N       1.310926     -0.906467     -0.361174
N       0.601647     -0.925711     -1.254807
H      -1.029570     -0.737078      0.774143
H      -1.716083     -0.364418     -0.825835
H      -2.250608      0.538988      0.588813
H       2.454321      0.113889      1.184373
