11
Extracted from Q-Chem output
N       3.147043      1.175951      1.212109
C       2.198352      0.923295      0.615624
C       1.028336      0.612122     -0.146742
C      -0.069872      0.103334      0.402604
C      -1.306864     -0.223383     -0.374127
O      -1.739516     -1.546115     -0.140172
H      -1.060390     -2.151238     -0.445587
H       1.083730      0.822278     -1.209684
H      -0.099091     -0.109298      1.467152
H      -2.124912      0.420057     -0.041565
H      -1.147235     -0.029381     -1.441812
