11
Extracted from Q-Chem output
N       3.040570      0.397778      1.163746
C       2.078516      0.363298      0.533362
C       0.886129      0.292089     -0.247843
C      -0.384201      0.278061      0.422562
C      -1.511510     -0.145128     -0.394513
O      -0.852210     -1.340824      0.045299
H       0.278394     -1.028455     -0.379404
H       0.925217      0.784443     -1.214126
H      -0.516320      0.403097      1.489199
H      -2.511850     -0.060800      0.016370
H      -1.462924      0.036904     -1.466095
