19
Extracted from Q-Chem output
C       2.247940     -0.908238     -1.214896
C       0.696553      0.177307      0.505470
O       0.774682      0.559776      1.647220
C       1.848560      0.359088     -0.462085
C      -2.324288      1.151155      0.721436
C      -1.794850     -0.273722      0.824702
C      -0.551434     -0.508149     -0.021321
H       2.526256     -1.705068     -0.522349
H       3.106280     -0.712252     -1.858225
H       1.440579     -1.278482     -1.848609
H      -1.582905      1.871847      1.070521
H       2.688008      0.759429      0.106930
H       1.543174      1.129627     -1.179309
H      -3.222680      1.280786      1.326912
H      -2.581710      1.401433     -0.311494
H      -2.569772     -0.978163      0.511002
H      -1.559057     -0.503505      1.865702
H      -0.715789     -0.202618     -1.060643
H      -0.314899     -1.577902     -0.066293
