19
Extracted from Q-Chem output
C       1.974466     -0.920276     -0.585035
C       0.751389     -0.267284      0.148773
O       0.918401     -0.149148      1.455465
C       0.640967      1.065223     -0.472056
C      -1.299742      1.214928      0.574324
C      -1.695575     -0.252240      0.474079
C      -0.562290     -1.019886     -0.220062
H       2.886139     -0.366858     -0.362970
H       1.844406     -1.011795     -1.664767
H       2.066344     -1.914663     -0.150491
H      -0.269314      1.123416      1.111483
H       1.227721      1.866736     -0.032665
H       0.301866      1.216177     -1.495739
H      -1.822105      1.794283      1.342203
H      -1.457609      1.769237     -0.354067
H      -2.640173     -0.374982     -0.059875
H      -1.822173     -0.639607      1.484018
H      -0.710704     -1.065358     -1.304799
H      -0.484324     -2.041210      0.154038
