14
Extracted from Q-Chem output
O       1.730002      1.258435     -1.582898
C       0.602459      0.993934     -1.514393
C       1.622746     -1.129224      0.868369
N       0.382714     -1.246331      0.697577
C      -0.456811     -0.096702      0.967668
C      -1.375643      0.200493     -0.210273
C      -0.669266      0.698294     -1.448109
H       2.270819     -1.982007      0.676083
H       2.098581     -0.198655      1.203348
H       0.132613      0.795157      1.235299
H      -1.082242     -0.346709      1.828547
H      -2.116603      0.941063      0.104856
H      -1.920998     -0.714017     -0.456338
H      -1.217875      0.833467     -2.371840
