14
Extracted from Q-Chem output
C      -2.280028      0.549900     -0.309792
C      -0.708827     -1.218227      0.155735
N      -0.956452      0.078206      0.050503
O       0.552815     -1.523937      0.493904
C       1.555535     -0.537415      0.712217
C       1.993273      0.124533     -0.578009
O       2.366346      1.262378     -0.640738
H      -2.911932     -0.322319     -0.457221
H      -2.699239      1.169422      0.484918
H      -2.244183      1.131360     -1.232558
H      -0.271494      0.805840      0.220901
H       1.264703      0.216287      1.449935
H       2.414401     -1.080880      1.113275
H       1.959460     -0.530959     -1.471036
