13
smiles: [C:1]([C:2](=[O:3])[C:4]([H:9])([H:11])[H:12])([H:6])([H:7])[H:8].[O:5]([H:10])[H:13]
C       -1.99459000       0.18977000       0.23264500
C       -0.53404000      -0.03596500      -0.07768000
O       -0.16926200      -0.44195000      -1.15212400
C        0.44577500       0.27426700       1.02891000
O        2.65632900      -0.69150000      -1.30825400
H       -2.17136300       1.25149800       0.42204600
H       -2.28080300      -0.34836200       1.13909700
H       -2.60876300      -0.13730800      -0.60319100
H        0.27206600      -0.39743400       1.87324000
H        1.70338900      -0.69771400      -1.40617600
H        1.46504900       0.15134000       0.66996300
H        0.29924500       1.29293500       1.39511000
H        2.99743800      -0.39485900      -2.15303200
