17
Extracted from Q-Chem output
C      -2.078570     -0.466154      0.226528
C      -0.814678      0.017544     -0.439224
O      -0.416506      1.261285      0.163594
C       0.801958      1.565445     -0.304663
C       1.709712     -0.270314      0.113802
C       1.004744     -1.229448      0.990543
C       0.373814     -0.915265     -0.280881
H      -2.879858      0.265666      0.118583
H      -1.899069     -0.646543      1.286739
H      -2.400310     -1.402449     -0.231957
H      -1.001024      0.215594     -1.506327
H       0.956814      1.523080     -1.382602
H       1.218193      2.447714      0.177453
H       2.617418     -0.374617     -0.467921
H       0.568825     -0.859552      1.914402
H       1.727971      0.700337      0.681093
H       0.498771     -1.626877     -1.099513
