14
Extracted from Q-Chem output
C      -1.762021     -0.531812     -0.091147
N      -1.439732      0.893090     -0.230196
C      -0.371617     -0.082675     -0.250726
C       0.803344     -0.128493      0.759207
C       1.674493     -0.266730     -0.476899
C       0.646755     -0.247836     -1.328496
O       0.969898      0.998110      1.579356
H      -2.064370     -0.902950      0.882444
H      -2.296086     -0.961202     -0.931187
H      -1.458193      1.349261      0.677170
H       0.797551     -0.994649      1.423301
H       2.743755     -0.383289     -0.598026
H       1.111003      1.761173      1.012280
H       0.560076     -0.355997     -2.402214
