14
Extracted from Q-Chem output
C      -1.582397     -0.805116     -0.283154
N      -1.792452      0.634828     -0.024372
C      -0.461060      0.100995     -0.059204
C       0.699864      0.057734      0.911378
C       1.676850     -0.481877     -0.142388
C       0.752144      0.507439     -0.864327
O       1.147854      1.444765      0.337576
H      -1.824718     -1.515461      0.500685
H      -1.839116     -1.127439     -1.285533
H      -2.110097      0.803114      0.922530
H       0.709565     -0.005102      1.997504
H       1.617516     -1.537804     -0.411373
H       2.154068      1.013629      0.254633
H       0.816446      0.979059     -1.841104
