12
Extracted from Q-Chem output
O       1.700538      0.474398     -0.782728
C       1.602664     -0.763538     -0.383507
C       0.790302      0.411687      0.533387
C      -0.427811      1.261205      0.158139
N      -0.566175     -0.064836      0.645438
C      -1.210448     -1.123182      0.021389
O      -2.215797     -1.000460     -0.619713
H       1.088017     -1.381127     -1.163547
H       1.370368      0.606845      1.418583
H      -0.640035      1.442253     -0.889196
H      -0.693259      2.051849      0.850389
H      -0.730987     -2.089132      0.244886
