17
smiles: [C:1]([O:2][H:17])([H:8])([H:9])[H:10].[C:3](=[C:4]([C:5]([C:6](=[O:7])[H:16])([H:14])[H:15])[H:13])([H:11])[H:12]
C        2.26946800       0.28540800       1.12264500
O        1.16684400      -0.44513100       1.61628000
C        0.10329200      -0.78875200      -1.92250400
C       -1.03246800      -0.23562800      -1.52984300
C       -1.57711000      -0.31611200      -0.13468400
C       -1.76476400       1.04953700       0.48141800
O       -1.43732100       1.33938100       1.59715700
H        3.05660600      -0.43509400       0.90357900
H        2.65413700       1.00155200       1.85762200
H        2.02976700       0.82329600       0.19832500
H        0.45050500      -0.69864500      -2.94428300
H        0.72491700      -1.35688100      -1.23879900
H       -1.62615000       0.32621300      -2.24737600
H       -2.57221900      -0.78006000      -0.15939000
H       -0.94348200      -0.91530100       0.51965700
H       -2.25093900       1.80203000      -0.17642200
H        0.45891500       0.16663600       1.81960200
