18
smiles: [C:1]([C:2]([H:10])([H:11])[H:16])([H:7])([H:8])[H:9].[C:3]1([H:12])([H:13])[C:4]([H:14])([H:15])[C:5]1([O:6][H:18])[H:17]
C       -2.29095200       0.57595600      -0.10105000
C       -1.63461300       1.11317000       1.16348600
C        1.14044700      -0.84867700      -1.16812400
C        1.17280700      -1.52496700       0.17899500
C        2.17488700      -0.47961400      -0.15046100
O        2.05288700       0.72781600       0.53891900
H       -1.98200200      -0.45124400      -0.30453200
H       -3.37952700       0.58049300      -0.01616100
H       -2.02669400       1.17797800      -0.97264800
H       -1.89806800       0.51045000       2.03485400
H       -1.94458800       2.13996900       1.36751300
H        1.44865800      -1.40949400      -2.04095500
H        0.34732000      -0.13210100      -1.33811700
H        0.40752400      -1.24215500       0.88915800
H        1.49888800      -2.55467300       0.23826200
H       -0.54612400       1.10973200       1.07818200
H        3.19835600      -0.79885700      -0.32975000
H        2.28713600       1.44114500      -0.05776200
