18
Extracted from Q-Chem output
C      -1.916153      1.014838     -0.493724
C      -1.254943      0.363354      0.704961
C       0.063581     -1.553730     -0.565383
C       1.282273     -1.144491      0.088023
C       1.428286      0.341325      0.341341
O       2.406168      0.698495      1.225432
H      -2.100765      0.294577     -1.290634
H      -2.875147      1.464358     -0.218113
H      -1.299307      1.814900     -0.911561
H      -1.744965     -0.554391      1.006581
H      -1.274332      1.039853      1.567420
H      -0.423310     -2.473635     -0.271302
H      -0.148047     -1.202217     -1.568504
H       1.494294     -1.689441      1.008854
H       2.129154     -1.296122     -0.606561
H       0.003943      0.378413      0.652078
H       1.400678      0.964154     -0.560630
H       2.855122      1.493708      0.934570
