9
Extracted from Q-Chem output
C       2.028243     -0.353550     -0.546621
C       0.812072     -0.010235     -0.233360
C      -0.397210      0.301447      0.074076
C      -1.785668      0.082325      0.351420
O      -1.156178      1.390331      0.381479
H       2.755693     -0.615022      0.214914
H       2.358034     -0.384021     -1.580114
H      -2.089383     -0.296264      1.322121
H      -2.482670     -0.066279     -0.467037
