13
Extracted from Q-Chem output
O      -1.653541     -0.688894      0.942618
C      -1.013916     -0.021492     -0.099270
C      -0.042507      1.134105      0.238043
N       1.066749      0.396150     -0.429767
C       1.356732     -0.998638      0.063652
C       0.168135     -0.745021     -0.778621
H      -0.985672     -1.180423      1.431387
H      -1.794208      0.295249     -0.791074
H       0.168252      1.314591      1.291955
H      -0.278573      2.069498     -0.269171
H       1.132975     -1.015766      1.138499
H       1.697430      0.835686     -1.081205
H       0.098979     -1.114858     -1.797059
