13
Extracted from Q-Chem output
C       2.257327      0.004816      0.463564
C       0.769204      0.076045      0.492567
N       0.101499      0.596821     -0.440132
C      -1.330644      0.564512     -0.334982
C      -1.954402     -0.613711     -1.050929
O      -1.365998     -1.593909     -1.404300
H       2.680469      0.489469      1.346908
H       2.641777      0.480721     -0.436373
H       2.579191     -1.039418      0.485457
H      -1.698844      0.501485      0.704162
H      -1.757730      1.476905     -0.761592
H      -3.050369     -0.518502     -1.204482
H       0.274854     -0.354637      1.377108
