13
Extracted from Q-Chem output
C       1.935038     -0.264339      0.245368
C       0.496829      0.055160      0.037874
N      -0.009628      1.216824     -0.339648
C      -1.386008      0.855503     -0.416655
C      -1.352391     -0.624764     -0.221626
O      -0.200954     -1.068466     -0.717227
H       2.045258     -1.203395      0.785473
H       2.397876      0.541747      0.811517
H       2.423928     -0.354489     -0.725632
H      -1.992977      1.427257      0.292175
H      -1.832762      0.983734     -1.414863
H      -2.215111     -1.287106     -0.276508
H      -0.280076     -0.245957      1.059703
