13
Extracted from Q-Chem output
C       2.283153     -0.190152      1.677408
C       1.190708     -0.073144      0.981659
C       0.093119      0.033534      0.285424
C      -0.646061      1.235781     -0.104641
C      -1.703556      0.837992     -0.809436
O      -1.818890     -0.499639     -0.976297
C      -0.705898     -1.114646     -0.308587
H       3.259266     -0.185463      1.202336
H      -0.377985      2.250213      0.138048
H       2.257393     -0.293168      2.757925
H      -2.486975      1.421763     -1.270784
H      -0.136379     -1.686447     -1.043284
H      -1.093195     -1.794756      0.452048
