12
Extracted from Q-Chem output
C      -1.448193      0.202170     -0.080201
C      -0.048666     -0.858867      0.792669
C       0.955727     -1.084093     -0.189549
N       1.533036      0.078884     -0.508799
N       1.043082      1.138643      0.077910
C       0.026216      0.589286      0.836986
H      -1.386131      1.050655     -0.759362
H      -1.627101     -0.704333     -0.642440
H      -2.232246      0.329244      0.655035
H       1.329457     -2.005303     -0.611599
H       2.305824      0.209451     -1.147081
H      -0.379449      1.223319      1.612944
