15
smiles: [C:1](=[C:2]1[C:3]([H:11])([H:12])[C@@:4]2([H:13])[O+:5]=[C-:6][C@@:7]12[H:15])([H:9])[H:10].[H:8][H:14]
C        1.54822400       0.69721500       0.80286300
C        0.29093300       0.33532700       0.63856600
C       -1.05462500       0.98168900       0.91330500
C       -1.71996300      -0.22052500       0.23137600
O       -1.73419100      -0.04844000      -1.21045700
C       -0.58608900      -0.67260100      -1.44260500
C       -0.35550900      -0.91566900       0.05869600
H        2.64847000      -1.06469700      -2.77704500
H        1.80560800       1.66395700       1.21915800
H        2.36092300       0.03547300       0.52959800
H       -1.25940800       1.95622500       0.46997400
H       -1.28492900       1.01106500       1.98016300
H       -2.64652400      -0.64763200       0.60592800
H        1.92393300      -0.95833500      -2.64203000
H       -0.05015300      -1.89986500       0.40007500
