13
Extracted from Q-Chem output
C       1.566901      0.073594      0.481087
C       0.261260      0.021240     -1.075470
C      -1.054198     -0.617390     -0.611615
C      -1.039567      0.319806      0.593890
O       0.143629      1.036899      0.163916
H       2.380429      0.419026     -0.139906
H       1.619848      0.506552      1.490967
H       1.538052     -1.008851      0.529755
H       0.159221      0.638408     -1.972676
H      -1.916044     -0.469639     -1.265702
H      -0.989605     -1.680939     -0.368249
H      -0.882001     -0.144546      1.570987
H      -1.869378      1.024204      0.669809
