15
Extracted from Q-Chem output
C       2.013979      0.207119     -0.258463
C       0.530362      0.263719     -0.153775
O      -0.159876      1.097517     -1.037917
C      -1.435665      0.924873     -0.444622
C      -1.667294     -0.608403     -0.472867
C      -0.382970     -0.899630      0.229892
C      -0.313367      0.351082      1.073317
H       2.440797      1.207597     -0.177775
H       2.422175     -0.411425      0.542454
H       2.313876     -0.224898     -1.214553
H      -1.345073      1.296687      0.704706
H      -2.550177     -0.876995      0.105641
H      -1.771808     -0.965981     -1.498819
H       0.027326     -1.859409      0.523292
H      -0.103604      0.499997      2.125765
