14
smiles: [C:3](=[C:4]([C:5]([C:6]([H:7])([H:13])[H:14])([H:11])[H:12])[H:10])([H:8])[H:9].[O+:1]#[C-:2]
O        3.45938600       1.27285200      -0.37512600
C        2.53918000       1.75139400       0.05648100
C        1.02260800      -1.44447600       0.40491300
C       -0.06650100      -1.05541600      -0.23956600
C       -1.17889900      -0.24558400       0.35274300
C       -1.38851200       1.07916500      -0.37915600
H       -0.49241500       1.70021300      -0.32320300
H        1.79665200      -2.02245800      -0.08524700
H        1.17965600      -1.19953800       1.45064500
H       -0.18031700      -1.32099200      -1.28945400
H       -2.10602300      -0.82738400       0.31072600
H       -0.97239000      -0.06175000       1.41053100
H       -1.61066400       0.91270000      -1.43592700
H       -2.21970100       1.63961600       0.05208100
