14
Extracted from Q-Chem output
O       2.688656      1.234537     -0.312198
C       1.624784      0.911423      0.021504
C       1.151052     -0.770906      0.391519
C      -0.094388     -0.897269     -0.248147
C      -1.397422     -0.450340      0.293226
C      -1.053148      0.876164     -0.331998
H       0.313844      1.221696     -0.225569
H       1.967242     -1.340115     -0.040609
H       1.154365     -0.779656      1.480239
H      -0.097996     -1.212473     -1.286858
H      -2.274114     -0.963145     -0.096515
H      -1.432457     -0.422753      1.381192
H      -1.416898      0.993519     -1.346473
H      -1.267565      1.752266      0.278289
