14
Extracted from Q-Chem output
O       3.330849     -1.282610      1.118211
C       3.031863     -0.079312      0.446146
C       1.601998      0.101483      0.191257
C       0.417356      0.228807      0.043251
C      -0.984607      0.420503     -0.189218
C      -3.245422      0.046541      0.135232
N      -1.863606     -0.220204      0.451442
H       2.735960     -1.368861      1.866186
H       3.399844      0.792669      1.001800
H       3.572555     -0.110781     -0.501316
H      -1.240551      1.159526     -0.959841
H      -3.718945     -0.882315     -0.189081
H      -3.381733      0.808610     -0.643773
H      -3.760184      0.368230      1.042739
