14
Extracted from Q-Chem output
O       2.883823     -1.411323      0.863855
C       2.606544     -0.251462      0.108602
C       1.202421      0.160194      0.180038
C       0.052293      0.482278      0.293061
C      -1.340786      0.915410      0.458187
C      -2.430902     -0.092706     -0.107263
N      -2.090899      0.503008      1.505617
H       2.506946     -1.298434      1.739145
H       3.236944      0.589618      0.422632
H       2.869804     -0.486668     -0.924062
H      -1.511071      1.910028      0.022476
H      -1.886195     -0.911590     -0.567952
H      -3.133478      0.448913     -0.729808
H      -2.988084     -0.555566      0.749166
