12
Extracted from Q-Chem output
C       0.536548      1.295689      0.136442
C       1.387439      0.628678     -0.658670
C       1.318637     -0.674101     -0.943734
N       0.437589     -1.417381     -0.141913
C      -0.589834     -0.790466      0.420636
C      -0.740501      0.611735      0.394718
C      -2.016201      1.059293      0.737772
H       0.807855      2.176021      0.709024
H       1.735843     -1.188182     -1.799810
H       0.507619     -2.420553     -0.069605
H      -1.354493     -1.387976      0.898912
H      -2.131141      2.110635      0.423081
