12
Extracted from Q-Chem output
C       0.787191      1.376521     -0.171354
C       1.510023      0.409366     -0.665892
C       0.991967     -0.865705     -0.834917
N       0.400270     -1.527869      0.312390
C      -0.645066     -0.689237     -0.216085
C      -0.629929      0.746608      0.109251
C      -1.614673      0.876504      0.889654
H       1.033095      2.334507      0.258805
H       1.099738     -1.471262     -1.725189
H       0.779871     -1.166044      1.179998
H      -1.494808     -1.171178     -0.677088
H      -2.318317      1.151180      1.647283
