14
Extracted from Q-Chem output
C       1.689364     -0.615717      0.880692
C       0.467771      0.172213      0.488890
O       0.764028      1.155582     -0.495438
C      -0.454574     -0.384034     -0.502529
C      -1.856577      0.056884     -0.576589
O      -1.537642      1.301265     -1.120640
H       2.164753     -1.049339      0.000171
H       2.402882      0.054405      1.360921
H       1.433872     -1.411549      1.582021
H      -0.047472      0.598750      1.355168
H      -0.236495      1.519731     -0.795593
H      -0.005396     -0.938176     -1.319673
H      -2.343482      0.105834      0.408835
H      -2.462477     -0.565399     -1.246415
