14
Extracted from Q-Chem output
C      -1.133413     -1.102130     -0.015360
C      -0.643267      0.302317      0.165688
N      -1.410615      1.286698      0.471180
O      -2.731792      0.875413      0.606178
C       0.740324      0.638250      0.005588
C       2.858558     -0.222938     -0.495097
O       1.581673     -0.297732     -0.303076
H      -1.895941     -1.130091     -0.794438
H      -0.324005     -1.777471     -0.280105
H      -1.604819     -1.450388      0.904397
H      -3.185206      1.690548      0.827396
H       1.108484      1.648827      0.133367
H       3.339008     -1.151787     -0.746589
H       3.357524      0.732041     -0.402673
