14
Extracted from Q-Chem output
C      -2.306317      0.044083     -0.168298
C      -0.866318     -0.410886     -0.225414
N       0.058734      0.592260     -0.307596
O      -0.561713     -1.582423     -0.185426
C       2.093750     -0.412549      0.707417
C       1.461372      0.365780     -0.343445
O       2.212500      1.004100      0.663814
H      -2.689143     -0.161753      0.832030
H      -2.441161      1.103633     -0.385709
H      -2.886477     -0.549307     -0.872933
H      -0.257199      1.542943     -0.383861
H       1.472554     -0.804805      1.504067
H       3.000542     -0.965748      0.486571
H       1.914715      0.410014     -1.330342
