14
Extracted from Q-Chem output
C      -2.197600     -0.070820     -0.137578
C      -0.708479     -0.211679     -0.084020
N       0.078623      0.836436     -0.270682
O      -0.189031     -1.332781      0.138664
C       1.607528     -0.699799      0.543717
C       1.540115      0.490233     -0.283561
O       2.410919      1.137241      0.470609
H      -2.628521     -0.511123      0.760632
H      -2.509880      0.969017     -0.223586
H      -2.573033     -0.629496     -0.995497
H      -0.279041      1.756865     -0.457265
H       1.359640     -0.552714      1.582406
H       2.285376     -1.505374      0.289980
H       1.808434      0.361221     -1.346830
