15
Extracted from Q-Chem output
C       1.710118      0.674965     -0.693899
C       2.130797      1.056259     -1.851707
C       0.418406      0.165623     -0.170282
C       0.164904     -1.201555      0.512919
C      -1.199455     -0.472891      0.501073
C      -0.445993      0.801502      0.947271
C      -0.891017     -0.062869     -0.957900
H       2.570956      0.793030     -0.017469
H       0.633152     -1.349752      1.487436
H       0.260058     -2.081430     -0.124309
H      -2.142052     -0.846592      0.893302
H      -0.910411      1.758737      0.707671
H      -0.019899      0.794013      1.951860
H      -0.873107     -0.862085     -1.699947
H      -1.388725      0.831646     -1.334321
