12
Extracted from Q-Chem output
O       2.297921     -0.353598      0.451282
C       1.167921     -0.109162      0.139362
C       0.056101     -1.100807     -0.166557
C      -1.209806     -0.282135      0.098670
C      -0.928446      1.180326      0.122143
C       0.538038      1.276064      0.005973
H       0.160159     -2.008030      0.426033
H       0.141298     -1.384252     -1.219992
H      -2.092929     -0.535888     -0.489604
H      -1.547745     -0.403657      1.144197
H       0.604825      1.546223     -1.067421
H       1.035027      2.087983      0.536077
