12
Extracted from Q-Chem output
O       2.390245     -0.467368      0.131453
C       1.226983     -0.186804      0.068826
C       0.038887     -1.115323     -0.084722
C      -1.187474     -0.208015      0.104147
C      -0.750508      1.241563      0.228843
C       0.644394      1.213738      0.155441
H       0.119187     -1.938494      0.625405
H       0.081732     -1.555207     -1.084438
H      -1.943868     -0.323404     -0.672912
H      -1.708934     -0.418670      1.042639
H      -0.032375      1.616919     -0.825667
H       1.289156      2.077015      0.298394
