16
Extracted from Q-Chem output
C       2.375961     -0.194433      0.315362
C       1.258364      0.733476      0.031614
C      -0.269319     -0.172969     -1.257466
N      -0.926725      0.142150     -0.039796
C      -2.336374      0.054644      0.219485
C       0.034498      0.581272      0.826478
O      -0.081451      0.840964      2.007560
H       2.108732     -1.245586      0.475430
H       2.737656      0.180075      1.282762
H       3.201272     -0.108731     -0.390186
H       0.694878      0.575377     -1.238229
H      -0.790137      0.174177     -2.154158
H       0.074249     -1.203201     -1.365872
H      -2.502988      0.421221      1.231892
H      -2.904426      0.673851     -0.481239
H      -2.697822     -0.974783      0.155739
