14
smiles: [C:1]([H:7])([H:8])([H:9])[H:10].[C:2]1[C:3]([H:11])([H:12])[C:4](=[O:5])[C:6]1([H:13])[H:14]
C        2.51920200       0.39655300      -0.15530100
C       -0.77630200       0.38753100       1.04788200
C       -0.92726600      -1.05816500       0.62442400
C       -1.96771300      -0.60371300      -0.39743900
O       -2.95173900      -1.08691700      -0.86277400
C       -1.44129800       0.82170700      -0.24101900
H        2.01654700       0.42634000      -1.12074500
H        3.43551400       0.98298200      -0.20377500
H        2.76191500      -0.63509400       0.09523300
H        1.86287900       0.81061800       0.60853700
H       -1.14374900      -1.82359900       1.36926300
H        0.02295900      -1.31915100       0.13683400
H       -2.10371500       1.68709600      -0.24558100
H       -0.61896500       1.02182800      -0.94259400
