14
Extracted from Q-Chem output
C       1.963961      0.329497     -0.070581
C      -0.141910      0.316067      0.823887
C      -0.606661     -1.104277      0.486127
C      -1.761138     -0.429260     -0.250550
O      -2.873548     -0.753843     -0.530102
C      -0.982776      0.882064     -0.325342
H       1.559786     -0.062971     -0.995760
H       2.422362      1.305728     -0.217879
H       2.646213     -0.375923      0.399432
H       1.166611      0.559072      0.815324
H      -0.830768     -1.777688      1.313126
H       0.013024     -1.634073     -0.245408
H      -1.510813      1.820415     -0.157212
H      -0.473190      0.929621     -1.293578
