12
Extracted from Q-Chem output
C      -1.225748     -0.327363     -0.373749
O      -0.842761      0.889080     -0.834431
C       0.568928      1.036866     -0.547038
C       0.920291     -0.090661      0.444492
O       0.534952      0.106862      1.718851
C      -0.168223     -1.080290      0.130599
H      -1.106916     -0.304215      0.885365
H      -2.230417     -0.647553     -0.609842
H       1.114207      0.940576     -1.490506
H       0.721396      2.020578     -0.106168
H       1.946304     -0.458956      0.281115
H      -0.217875     -2.086301      0.518223
