11
Extracted from Q-Chem output
O       2.307866      0.546741     -0.385060
C       0.992620      0.375136     -0.177126
C       0.359262     -0.939927      0.025371
C      -0.938040     -0.689038      0.195995
C      -1.122972      0.793506      0.099983
N       0.186869      1.359727     -0.140596
H       2.749297     -0.304401     -0.388117
H       0.860638     -1.898639      0.031223
H      -1.727696     -1.406076      0.373465
H      -1.808526      1.064307     -0.710293
H      -1.551392      1.208087      1.018938
