10
Extracted from Q-Chem output
N      -1.595444     -0.019959      0.073940
C      -0.211589      0.014942     -0.043934
C       0.731146      1.002053      0.084384
N       1.960182      0.440479     -0.063138
N       1.837349     -0.818300     -0.281023
N       0.521429     -1.094328     -0.262713
H      -2.066245     -0.418524     -0.724427
H      -1.985143      0.882311      0.293336
H       0.600363      2.055076      0.268869
H       0.207952     -2.043749     -0.363797
