18
Extracted from Q-Chem output
C       2.093705      0.097370     -0.089587
C       0.834424     -0.735211      0.096492
C      -0.481876      0.057854      0.173223
C      -1.652300     -0.901459      0.392004
C      -0.718107      0.909425     -1.074281
C      -0.353538      1.654823      2.225387
N      -0.414997      0.939780      1.309888
H       2.102620      0.615740     -1.049623
H       2.976445     -0.542423     -0.056911
H       2.196018      0.843777      0.700127
H       0.916112     -1.326590      1.012316
H       0.729346     -1.446710     -0.727745
H      -1.504282     -1.492598      1.296270
H      -2.588374     -0.350699      0.488445
H      -1.735323     -1.579865     -0.458569
H      -1.678423      1.421467     -1.007547
H       0.059445      1.662492     -1.195351
H      -0.726225      0.271014     -1.959555
