11
Extracted from Q-Chem output
C      -2.242895      0.556131     -0.312652
C       1.188188     -0.199609     -0.108771
C       2.336968     -0.609862      0.639311
O       2.067643     -1.074420     -0.703278
C       0.081634      0.413147     -0.356661
N      -0.915940      1.077261     -0.604287
H      -2.805951      0.511264     -1.245568
H      -2.753388      1.261377      0.344118
H      -2.223111     -0.433032      0.153206
H       3.188251      0.058305      0.725286
H       2.233741     -1.367711      1.409796
