14
Extracted from Q-Chem output
O      -1.154621     -1.200846      1.391806
C      -1.098892     -0.173818      0.455697
C      -0.612227      1.111498      1.083237
O      -0.311813      1.187339      2.242516
C       1.996863     -0.019807     -1.143592
N       1.166569     -0.591122     -0.392464
C      -0.231374     -0.534846     -0.755642
H      -0.719471     -0.878931      2.191628
H      -2.112003      0.032452      0.075836
H       1.711439      0.515353     -2.059497
H      -0.546030      1.989408      0.411501
H       3.054594     -0.049517     -0.889181
H      -0.426336      0.170922     -1.578361
H      -0.544274     -1.530234     -1.078384
