14
Extracted from Q-Chem output
C      -2.360403     -1.038028     -0.256842
C      -1.417574      0.002745     -0.788027
C      -0.259275      0.278735     -0.276994
N       0.828432      1.598358      1.272480
C       0.902232      0.575047      0.260528
O       1.892418      1.865375      1.764566
C       2.220220     -0.042251     -0.083629
H      -1.942449     -1.540556      0.613731
H      -3.307505     -0.576973      0.029842
H      -2.575405     -1.784337     -1.024153
H      -1.728591      0.571812     -1.661107
H       2.662340     -0.508832      0.798063
H       2.920206      0.721316     -0.426448
H       2.093966     -0.791424     -0.862495
