16
Extracted from Q-Chem output
C       0.850277      1.285943      0.604970
C       0.053480      0.185939     -0.055887
C       1.149449     -1.054330     -0.559499
C      -0.350659     -0.908593      0.715767
O      -2.471684      0.085132      0.400052
C      -2.042412      0.522485     -0.687529
N      -0.776703      0.574088     -1.103698
H       1.349716      1.881661     -0.158064
H       1.587659      0.912308      1.318964
H       0.146743      1.932011      1.132046
H       1.800292     -1.531426      0.171027
H       0.677061     -1.757550     -1.235929
H       1.747894     -0.354919     -1.140985
H      -1.002116     -1.655535      0.293419
H       0.035339     -1.072327      1.716969
H      -2.760157      0.943911     -1.404998
