14
Extracted from Q-Chem output
C       1.732488     -0.524279      0.192181
C       0.519096      0.342165     -0.068595
C      -0.631588     -0.161310     -0.982509
C      -1.681203      0.303100      0.058579
C      -0.525493      0.470242      1.040529
O      -0.451939      0.542514      2.229702
H       2.336685     -0.105029      0.997711
H       1.434274     -1.532295      0.488307
H       2.357226     -0.603100     -0.699462
H       0.820626      1.352303     -0.366736
H      -0.695943      0.290903     -1.970321
H      -0.613950     -1.246480     -1.090310
H      -2.136355      1.265352     -0.184648
H      -2.463922     -0.394086      0.355573
