15
Extracted from Q-Chem output
C       1.776799     -0.246623     -0.725291
O       1.206685     -0.065918      0.514752
C       0.095544      0.589928      0.539699
C      -0.886209     -0.700661     -1.192449
C      -0.747059      0.504521      1.754249
H       0.434684     -0.595848     -1.207053
H       2.647144     -0.888607     -0.640367
H       1.961713      0.688633     -1.257596
H      -0.000368      1.439754     -0.130313
H      -1.266847     -1.406704     -0.453263
H      -0.875282     -1.214875     -2.159386
H      -1.585224      0.130106     -1.290128
H      -1.799740      0.557567      1.465493
H      -0.555086      1.331378      2.444801
H      -0.571801     -0.436860      2.274068
