13
Extracted from Q-Chem output
N      -2.244712     -0.507049      0.188797
C      -0.914700     -0.054853      0.059011
C      -0.336005      1.167660     -0.121823
C       1.080475      0.981475     -0.179518
C       1.295203     -0.360656     -0.029335
O       2.414285     -1.122945     -0.001007
N       0.102992     -0.986154      0.114082
H      -2.800298     -0.318938     -0.632283
H      -2.709337     -0.118174      0.995685
H      -0.864242      2.104784     -0.204054
H       1.834875      1.739707     -0.317607
H       3.175887     -0.552415     -0.113638
H      -0.034424     -1.972443      0.241690
