18
smiles: [C:1]([H:8])([H:9])([H:10])[H:12].[C:2](=[C:3]([H:13])[H:14])([C@@:4]([C:5]([H:16])([H:17])[H:18])([C:6]#[N:7])[H:15])[H:11]
C        2.66547600      -1.14341400      -0.12253600
C       -0.40971500       1.09704500       0.66828900
C        0.09954600       2.10382900      -0.01963400
C       -0.90339200      -0.21284700       0.10324300
C       -2.38328700      -0.45009100       0.43807900
C       -0.68798600      -0.30285300      -1.34360200
N       -0.53410400      -0.37281500      -2.47812000
H        2.41506000      -1.95165500       0.56276100
H        3.74447300      -1.11008200      -0.26610500
H        2.17681600      -1.31383800      -1.08066300
H       -0.51697200       1.17543500       1.74682200
H        2.32503700      -0.19656700       0.29393300
H        0.41802700       3.01070000       0.47837800
H        0.22085600       2.05912800      -1.09651500
H       -0.31548500      -1.02062300       0.55302800
H       -2.71653900      -1.42044300       0.07068400
H       -2.52427700      -0.42115000       1.51922400
H       -3.00333100       0.32532500      -0.01194700
