16
Extracted from Q-Chem output
C      -1.314628     -1.237617      0.654988
C      -1.096215     -0.057238     -0.202724
N       0.270893      1.497214     -0.356527
C      -0.032241      0.254105     -1.129040
C       1.322927     -0.309529     -0.731032
C       1.280049      0.705196      0.488914
O       0.773541      0.271818      1.589442
H      -0.431844     -1.857025      0.761284
H      -1.666696     -0.953291      1.644267
H      -2.124353     -1.804978      0.166624
H      -1.959262      0.597924     -0.310745
H      -0.437980      2.027753      0.143086
H      -0.300123      0.399451     -2.174825
H       2.083116     -0.068721     -1.472809
H       1.371537     -1.359605     -0.453821
H       2.196044      1.324683      0.564006
