12
Extracted from Q-Chem output
N      -2.105365      0.229274     -0.096575
C      -0.850377     -0.316956     -0.031310
C       0.190022      1.333422      0.345473
N       1.349113      1.504450      0.251213
C       2.433257     -0.368635     -0.036784
N       1.810663     -1.345929      0.014233
C      -0.273633     -1.418048     -0.000281
H      -2.161799      1.126134     -0.555531
H      -2.832179     -0.397698     -0.399406
H      -0.705555      1.870502      0.633499
H       3.293870      0.256123     -0.114326
H      -0.139797     -2.471950     -0.007899
