13
Extracted from Q-Chem output
C       1.922461     -0.156444     -0.028724
N       0.514956     -0.149636     -0.398100
C      -0.428040      0.555756      0.607413
O       0.021264      1.264547      1.459314
C      -1.616264     -0.239545      0.454673
O      -2.122183     -0.371272     -0.864424
H       2.288691      0.857288      0.141038
H       2.047020     -0.721961      0.894026
H       2.501695     -0.635105     -0.816735
H       0.336483      0.134761     -1.352732
H      -2.371350     -0.158985      1.232167
H      -0.354032     -0.980780      0.055468
H      -2.666571      0.394898     -1.059795
