10
Extracted from Q-Chem output
O      -2.262144     -0.898536     -0.010231
C      -1.569885      0.195543     -0.464696
C       0.566603      0.611824      0.359362
O      -0.149702     -0.083436     -0.471769
C       1.935821      0.233060      0.272370
C       3.123334      0.039871      0.331530
H      -2.254843     -1.589443     -0.676310
H      -1.736348      1.025855      0.219062
H      -1.811345      0.455707     -1.498786
H       4.172479     -0.137041      0.379280
