10
Extracted from Q-Chem output
O      -2.450749     -0.472048      0.006846
C      -1.517735      0.358475     -0.414722
C       0.545563      0.195808     -0.206203
O      -0.039013     -0.927468     -0.272859
C       1.908073      0.208482      0.275008
C       3.033947      0.407787      0.654521
H      -2.473120     -1.260402     -0.547998
H      -1.493911      1.241579      0.205842
H      -1.346776      0.488004     -1.474191
H       4.031119      0.568032      0.991566
