14
Extracted from Q-Chem output
O       0.306460      0.924207      1.357953
C       1.079159      1.306313      0.304159
C       0.908520      0.768139     -0.897187
C      -0.197638     -0.252810     -0.963587
C       0.002869     -1.222513      0.225192
C      -0.647644     -0.066731      1.003197
N      -1.355279      0.371131     -0.222090
H       1.802338      2.064489      0.571254
H       1.509352      1.052140     -1.747855
H      -0.409356     -0.632928     -1.960765
H       1.011781     -1.540489      0.487528
H      -0.674937     -2.074757      0.181121
H      -1.251725     -0.244939      1.890240
H      -2.169005     -0.225912     -0.327780
