13
Extracted from Q-Chem output
N       3.553266      0.532706     -0.001374
C       2.491156      0.111657     -0.102226
C       1.130765     -0.401365     -0.234009
C      -1.824030     -0.832850      0.883342
C      -1.318380      0.080404     -0.109097
C       0.073905      0.659199      0.087990
H       1.008773     -0.774665     -1.254571
H      -2.750138     -1.272504      0.470550
H       1.012348     -1.252714      0.441270
H      -1.584460     -0.065679     -1.164919
H      -2.090503      0.809250      0.285209
H       0.188676      0.973468      1.126445
H       0.224298      1.534128     -0.547779
