17
Extracted from Q-Chem output
C      -2.445900     -0.701988     -0.520300
C      -1.480086      0.464098     -0.684094
C      -0.274380      0.318976      0.216532
O       0.540099     -0.767523     -0.140240
C       0.925176      1.096512     -0.049637
C       3.175660      0.015570      0.204955
O       2.794481     -1.143280      0.480951
H      -3.288666     -0.612250     -1.206882
H      -1.941827     -1.647924     -0.723184
H      -2.846125     -0.744527      0.495587
H      -1.129554      0.519024     -1.718848
H      -1.979987      1.411397     -0.457050
H      -0.571861      0.298413      1.273073
H       1.697653     -1.082634      0.313868
H       1.447112      1.623970      0.729512
H       1.146759      1.384751     -1.066055
H       4.281938      0.090596      0.331301
