14
Extracted from Q-Chem output
O      -0.988369      1.577433     -0.773225
C      -0.752073      0.920744      0.481085
C      -0.883780     -0.592173      0.367186
C       0.375000     -0.990932     -0.411560
C       1.384936      0.078783      0.037493
C       0.711715      1.307906      0.520829
H      -0.800814      0.961702     -1.486356
H      -1.399169      1.389935      1.219148
H      -1.821177     -0.897745     -0.102625
H      -0.862853     -1.026805      1.370326
H       0.217042     -0.939139     -1.493532
H       2.254178      0.240245     -0.600421
H       1.810379     -0.200101      1.023783
H       0.701650     -2.009309     -0.201076
