14
Extracted from Q-Chem output
O      -0.992980      1.913991     -0.147082
C      -0.721861      0.739267      0.573510
C      -0.984186     -0.614481     -0.132831
C       0.448306     -1.089709      0.060379
C       1.334214      0.039239     -0.426159
C       0.803832      0.551611      0.880697
H      -0.418053      1.958558     -0.914243
H      -1.294612      0.834797      1.494464
H      -1.278549     -0.525592     -1.180824
H      -1.725786     -1.221420      0.384741
H       0.802492     -2.111396     -0.046568
H       0.988729      0.474956     -1.362113
H       2.399754     -0.166688     -0.444922
H       0.609786     -0.907925      1.231583
