17
Extracted from Q-Chem output
C       1.934752     -0.428919     -0.250918
C       1.218603      0.519027      0.704712
C       0.068046      1.308602      0.078006
C      -1.188304      0.508541     -0.189847
O      -1.107136     -0.565156     -1.153303
C      -1.865507     -1.332573     -0.208437
C      -1.901403     -0.283782      0.847911
H       2.765196     -0.929877      0.249977
H       2.343398      0.117187     -1.104834
H       1.261659     -1.188530     -0.647414
H       1.942127      1.238242      1.098573
H      -0.226952      2.119613      0.749007
H       0.392649      1.769008     -0.860282
H      -2.008575      1.197014     -0.490556
H      -1.308230     -2.205227      0.165183
H      -2.834587     -1.681952     -0.579865
H       0.838991     -0.030727      1.572403
