14
Extracted from Q-Chem output
C      -0.906470      1.219210     -0.381172
C      -0.251142      0.135745      0.412892
C       1.557199     -0.345610     -0.356334
N      -0.106277     -1.132848     -0.390634
C      -0.729839     -0.094671      1.721645
N      -1.019591     -0.324945      2.819312
H      -1.903425      0.925240     -0.750000
H      -0.311401      1.503726     -1.256583
H      -1.035118      2.109995      0.232928
H       1.954305     -1.032135     -1.109529
H       2.032691     -0.501082      0.604790
H       1.655319      0.679226     -0.697532
H      -0.050383     -1.951392      0.200839
H      -0.822399     -1.276142     -1.107920
