9
Extracted from Q-Chem output
O      -3.177730     -0.101532     -0.103372
C      -2.121191      0.306150     -0.023590
C      -0.307733     -0.693102     -0.104025
N       0.209093      0.503840      0.070207
C       1.559175      0.324277      0.089857
N       1.899635     -0.910661     -0.062534
O       0.671733     -1.572529     -0.189546
H      -1.022739      1.036814      0.103520
H       2.289757      1.106741      0.219481
