16
Extracted from Q-Chem output
C       1.472153     -0.453501      1.204961
C       0.369937      0.334069      0.504482
C      -0.100873     -0.400655     -0.752868
C      -1.027330      0.398594     -1.607306
C      -0.793282      0.618510      1.447823
O      -1.010734     -0.121924     -2.811134
H       2.324349     -0.625962      0.543494
H       1.834333      0.076563      2.088271
H       1.102672     -1.429729      1.533519
H       0.788223      1.294416      0.181779
H       0.742546     -0.784089     -1.342481
H      -0.692493     -1.283617     -0.460082
H      -1.588705      1.159753      0.934277
H      -0.467711      1.212564      2.304421
H      -1.213251     -0.316623      1.832313
H      -1.625068      0.374863     -3.361151
