13
Extracted from Q-Chem output
C       1.121866     -0.707010     -0.208463
C       0.659405      0.481145      0.617337
C      -0.191100      1.461583     -0.084032
C      -0.068791     -1.394407     -0.769719
C      -1.199502     -0.744115     -0.078284
N      -0.800397      0.418042      0.732778
H       1.599638     -1.484941      0.407512
H       1.859896     -0.490600     -0.986052
H       1.207938      0.769609      1.505994
H      -0.300143      2.468864      0.299025
H      -0.271876      1.375104     -1.165883
H      -1.594355     -1.542955      0.571904
H      -2.023324     -0.512424     -0.760310
