18
smiles: [C:1]([C:2]([C:3](=[C:4]([H:13])[H:14])[H:12])([H:10])[H:11])([H:7])([H:8])[H:9].[C:5](=[C:6]([H:17])[H:18])([H:15])[H:16]
C        1.61900500      -0.04112500       0.96827500
C        0.95643900       1.10607900       0.20730100
C       -0.19804700       1.69775500       0.95633400
C       -1.44665900       1.75015200       0.51913000
C       -1.31303200      -1.76190300      -1.06011900
C       -0.20818900      -2.19074300      -1.64550700
H        0.91248500      -0.85681100       1.13332400
H        1.97609900       0.29119600       1.94592500
H        2.47464200      -0.43722000       0.41876500
H        0.61552400       0.76055700      -0.77229900
H        1.70026900       1.88875600       0.02278900
H        0.03134500       2.09871400       1.94243000
H       -2.23964000       2.18647600       1.11429400
H       -1.72220800       1.35941100      -0.45535900
H       -1.29359400      -1.28807200      -0.08529900
H       -2.28372400      -1.86460300      -1.53186800
H        0.76249600      -2.08779900      -1.17383100
H       -0.22772000      -2.66443000      -2.62040100
