12
Extracted from Q-Chem output
C      -1.523491      0.131587      0.635936
C      -0.227317      0.131794     -0.108162
N       0.262977      1.173605     -0.730894
N       0.545212     -0.948123     -0.160590
C       2.027251     -0.551371     -0.574808
O       2.825093     -1.423998     -0.518294
H      -2.020059      1.097887      0.563525
H      -1.343824     -0.100381      1.687202
H      -2.184792     -0.634617      0.229575
H      -0.179728      2.067477     -0.602105
H       0.308077     -1.768693      0.378067
H       1.404136      0.811104     -0.872954
