14
Extracted from Q-Chem output
C       1.238896      0.582888     -0.623378
C       0.247692      0.766097      0.501411
C      -1.197977      0.510858      0.072074
C      -1.065541     -0.981419      0.268626
C       0.938252     -0.904842     -0.537309
O       0.503816     -0.604329      1.007316
H       1.024864      1.097375     -1.561677
H       2.245252      0.850762     -0.275540
H       0.414420      1.532999      1.255423
H      -1.933629      0.951242      0.745877
H      -1.413972      0.805719     -0.952807
H      -1.453573     -1.372312      1.210456
H      -1.285101     -1.637376     -0.558471
H       1.806213     -1.565303     -0.486324
