16
Extracted from Q-Chem output
O      -1.771529      0.726500      1.704344
C      -2.271214      0.368553      0.562962
C      -1.211074      0.390652     -0.540791
C       0.197934     -0.068545     -0.207767
C       1.339617      0.847760     -0.403254
N       0.807291      0.632763      0.943386
C       0.425648     -1.555375     -0.315843
H      -0.796218      0.909178      1.657964
H       0.251717     -1.894865     -1.338436
H      -1.213942      1.442937     -0.858121
H      -1.593574     -0.173899     -1.391436
H       1.176614      1.837975     -0.811646
H       2.308373      0.415596     -0.625882
H       1.404376      0.008464      1.471588
H       1.449192     -1.820967     -0.041850
H      -0.259272     -2.100496      0.337689
