16
Extracted from Q-Chem output
O      -2.650074     -0.782872      0.409813
C      -1.606472     -0.481106     -0.362533
C      -0.871234      0.804385     -0.052101
C       0.533095      0.253533     -0.020713
C       1.564386      0.562441     -1.027157
N       1.669724      1.079563      0.340933
C       0.265082     -1.137348      0.455422
H      -2.704773     -0.196108      1.178426
H      -0.794845     -1.378226     -0.491472
H      -1.122770      1.179698      0.954806
H      -1.073309      1.602314     -0.767851
H       1.369172      1.313342     -1.783968
H       2.231585     -0.235840     -1.334456
H       2.338562      0.539514      0.876981
H       0.952193     -1.932622      0.166510
H      -0.038010     -1.208891      1.499725
