11
Extracted from Q-Chem output
N       0.954071     -0.227201      1.566513
C       0.908495      0.575196      0.627813
C       0.940648      0.287938     -0.862989
O      -0.179985     -0.579402     -1.040793
C      -1.080043     -0.736784      0.056753
C      -0.618552      0.338641      1.025027
N      -0.533691      1.557007      0.836848
H       1.852954     -0.253158     -1.111011
H       0.831194      1.179116     -1.479264
H      -2.093274     -0.516009     -0.277059
H      -1.009629     -1.745290      0.461704
