21
smiles: [C:1]1([H:8])([H:9])[C:2]([H:10])([H:11])[C:3]([H:12])([H:13])[C:4]([H:14])([H:15])[C:5]([H:16])=[C:6]([H:19])[C:7]1([H:20])[H:21].[H:17][H:18]
C        0.65081400       1.45331600       0.09873000
C       -0.87305000       1.41768500       0.17962000
C       -1.49104500       0.06785300       0.53416600
C       -1.29152300      -1.03147600      -0.51329600
C        0.10788900      -1.58105000      -0.60032500
C        1.20567900      -0.86951900      -0.82465000
C        1.25754000       0.62066600      -1.03408300
H        1.07660800       1.12392500       1.05242000
H        0.95959300       2.49412500      -0.03686500
H       -1.28632600       1.75708800      -0.77845100
H       -1.19643600       2.15217500       0.92325400
H       -1.09312200      -0.27819700       1.49398400
H       -2.56582600       0.21309000       0.67841900
H       -1.97848700      -1.85176400      -0.29563900
H       -1.59204000      -0.64209400      -1.49474100
H        0.21770600      -2.65396400      -0.47215700
H        1.48875500      -1.51438200       2.96584800
H        1.34319900      -1.40911800       2.24319700
H        2.15273000      -1.39934800      -0.86692100
H        2.29847500       0.91975800      -1.17248700
H        0.74536400       0.87498700      -1.97122200
