21
Extracted from Q-Chem output
C       0.508521      1.497937      0.166828
C      -0.969254      1.396182     -0.214597
C      -1.694793      0.129426      0.232351
C      -1.039965     -1.196467     -0.158806
C       0.262467     -1.479449      0.594161
C       1.534445     -0.881013     -0.015841
C       1.406812      0.528059     -0.605056
H       0.632741      1.356188      1.246677
H       0.837243      2.519867     -0.041156
H      -1.044340      1.485451     -1.305002
H      -1.504178      2.258370      0.195093
H      -1.801330      0.144518      1.323646
H      -2.712039      0.158801     -0.169873
H      -1.751435     -1.997559      0.059313
H      -0.870618     -1.232321     -1.241374
H       0.144618     -1.116636      1.620773
H       0.408142     -2.559503      0.681787
H       2.310447     -0.878534      0.755785
H       1.901125     -1.546349     -0.803537
H       2.411862      0.949865     -0.690059
H       1.029527      0.463168     -1.631112
