12
Extracted from Q-Chem output
O       1.481820      0.996386      1.045885
C       0.920903      0.385502      0.218759
C       0.887918     -0.785209     -0.621978
C      -0.288431     -0.907219      0.344811
C      -1.126387      1.174356      0.073000
O      -0.299684      1.517423     -0.802057
H       0.644078     -0.638083     -1.664395
H       1.741780     -1.436806     -0.461542
H      -1.244947     -1.150705     -0.097968
H      -0.079377     -1.438059      1.265876
H      -1.004271      1.469566      1.122637
H      -2.142216      0.876006     -0.219148
