17
Extracted from Q-Chem output
C      -2.191154      0.177011      0.126592
C      -0.705707      0.201817      0.405444
C      -0.046681     -1.164398      0.253946
C       1.460341     -1.013709      0.214767
C       2.143891      0.200248      0.118572
C       1.258838      1.357368     -0.189108
O      -0.108452      1.111739     -0.495033
H      -2.697375     -0.525721      0.791446
H      -2.372730     -0.128129     -0.905923
H      -2.623289      1.167357      0.270897
H      -0.532374      0.556970      1.434826
H      -0.405542     -1.656839     -0.654607
H      -0.311539     -1.815812      1.091208
H       2.040002     -1.903369      0.464204
H       2.033023     -0.743115     -0.857459
H       1.340458      2.005981      0.699534
H       1.654805      1.931876     -1.027239
