15
Extracted from Q-Chem output
C      -2.392449     -0.065909      0.852069
C      -1.491644     -0.157239     -0.365420
C      -0.038392      0.075361     -0.133513
O       0.346387      0.425640      1.006739
C       0.903288     -0.114939     -1.256832
C       2.043860     -0.057850     -0.719095
C       2.916602      0.155060      0.301537
H      -2.110002     -0.797738      1.609390
H      -3.428321     -0.255126      0.568480
H      -2.340519      0.921287      1.311497
H      -1.773679      0.558753     -1.145146
H      -1.553352     -1.129465     -0.866024
H       3.407415      1.123038      0.358388
H       1.560515      0.365093      0.943283
H       3.474477     -0.679735      0.714935
