13
Extracted from Q-Chem output
C      -1.292402     -1.751612     -0.100319
N      -1.065197     -0.485259      0.246786
C      -0.116053      0.350641     -0.107694
C       0.440819      1.581925      0.539434
O       1.715366      1.288397     -0.067910
C       1.227500      0.078481     -0.683743
H      -2.179789     -2.226896      0.277561
H      -0.651890     -2.216517     -0.831079
H      -1.745862     -0.095890      0.887585
H       0.498392      1.580903      1.637049
H       0.059043      2.552123      0.202000
H       1.723112     -0.825426     -0.293580
H       1.344193      0.105602     -1.773215
