13
Extracted from Q-Chem output
C      -1.328027     -1.397480     -0.424318
N      -1.001438     -0.611968      0.644729
C      -0.069886      0.140602      0.072400
C       0.306073      1.583455      0.262254
O       1.675600      1.251694     -0.017123
C       1.362662     -0.127620     -0.311093
H      -1.338126     -2.479877     -0.334962
H      -1.765794     -0.928550     -1.290264
H      -1.403103     -0.555530      1.573997
H       0.155442      1.975905      1.277906
H      -0.089661      2.306519     -0.460063
H       1.892081     -0.838063      0.337019
H       1.577597     -0.354866     -1.357949
