13
Extracted from Q-Chem output
C      -2.072033      0.141359     -0.264654
C      -0.708145      0.161286      0.281403
O       0.966776     -1.559928      1.050698
C       1.936580     -1.007694      0.482693
O       3.065851     -1.423153      0.247499
C       1.653397      0.375546     -0.081829
C       0.373966      0.764330     -0.350374
H      -2.341367     -0.914057     -0.394445
H      -2.787354      0.539084      0.459945
H      -2.166350      0.651162     -1.221650
H      -0.545000     -0.260068      1.263445
H       2.508693      0.972701     -0.381179
H       0.177542      1.532152     -1.094747
