15
Extracted from Q-Chem output
C       1.875306     -1.260781     -0.072685
C       1.146486     -0.200035      0.613380
C      -0.876704      1.904938     -0.129670
N      -1.064924      0.856534      0.860476
C      -0.326637     -0.348770      0.569948
C      -0.871133     -1.098485     -0.595017
N      -1.290742     -1.637803     -1.517840
H       1.367027     -2.210673     -0.281504
H       2.002969     -0.757529     -1.052704
H       2.884317     -1.405670      0.310367
H       0.176827      2.190286     -0.138479
H      -1.172705      1.613373     -1.147727
H      -1.458425      2.778415      0.162393
H      -2.046614      0.643763      0.973973
H      -0.401782     -1.025628      1.446790
