10
Extracted from Q-Chem output
N       1.414423     -0.348687     -0.017151
C       0.489829     -1.076465      0.624438
O       0.664499     -2.080529      1.247240
N      -0.565460      1.300262     -0.754204
C      -1.267261      0.497303     -0.085100
O      -0.826765     -0.596743      0.554736
H       2.357900     -0.685837      0.023805
H       1.150478      0.485098     -0.525395
H      -1.134846      2.044506     -1.136773
H      -2.343523      0.575963      0.071750
