14
smiles: [H:7][H:14].[O:1]=[C:2]([C:6]12[C:3]([H:9])([H:10])[C:4]1([H:11])[C:5]2([H:12])[H:13])[H:8]
O       -0.65115600       2.22247700       0.26202300
C       -1.13019900       1.11801200       0.22397700
C       -0.96759900      -1.44735200      -0.48155900
C        0.34158400      -1.03808400       0.07792500
C        0.82697400      -0.17128100      -1.02744200
C       -0.56744000      -0.00201600      -0.51973800
H        1.59109100       1.80747900       1.68631100
H       -2.05665600       0.87726800       0.78646400
H       -0.99504900      -1.98729500      -1.42506700
H       -1.74150800      -1.72767100       0.22603000
H        0.67539200      -1.07184900       1.10213800
H        0.95976000      -0.60885100      -2.01403900
H        1.52941800       0.61360700      -0.77129200
H        2.18646100       1.48780500       1.99891400
