14
Extracted from Q-Chem output
O      -0.877392      1.899689      0.174033
C      -0.876446      0.668425      0.557637
C      -1.051234     -0.785061     -0.374597
C       0.325166     -1.287021     -0.071638
C       1.204027     -0.251285     -0.725614
C       0.463554      0.095327      0.501630
H       0.447057      2.065655      0.745581
H      -1.445322      0.404398      1.460113
H      -1.213362     -0.487141     -1.407113
H      -1.878100     -1.329793      0.067414
H       0.606042     -2.264462      0.288012
H       0.937697      0.158301     -1.695785
H       2.266419     -0.361286     -0.540234
H       1.087113      1.508007      1.088495
