15
Extracted from Q-Chem output
C      -1.942311     -0.174297     -0.391802
C      -0.906656      0.620007     -0.634951
O       0.037216     -0.039202      2.078721
C       0.958514      0.054663      1.047685
C       1.030017     -1.026088      0.012608
C       0.524322      0.343359     -0.365366
O       1.406861      1.171665     -1.068813
H      -0.804255      0.321149      1.778000
H      -2.953065      0.156207     -0.594469
H      -1.827126     -1.179513     -0.002027
H      -1.079048      1.616769     -1.032188
H       1.887523      0.528826      1.342589
H       2.002649     -1.305799     -0.370249
H       0.308178     -1.828881      0.094560
H       1.477873      0.839426     -1.966826
