12
Extracted from Q-Chem output
C       1.799694     -0.416388      0.076401
C       0.354028     -0.094485      0.004488
C      -0.415920      0.874335      0.552196
C      -1.752840      0.637462      0.097268
C      -1.686881     -0.455545     -0.689700
O      -0.413575     -0.913429     -0.757490
H       2.309423      0.310526      0.706656
H       2.256340     -0.395654     -0.915129
H       1.958348     -1.411397      0.497330
H      -0.076944      1.663515      1.203539
H      -2.637995      1.207102      0.329242
H      -2.420013     -1.010814     -1.250275
