10
Extracted from Q-Chem output
N       3.177974     -0.532216      0.357589
C       2.041489     -0.436667      0.221842
C       0.637804     -0.293809      0.060788
N      -0.288185     -1.250249      0.136618
C      -1.583365     -0.662504     -0.060303
C      -1.309207      0.674505     -0.294821
N       0.041350      0.858747     -0.274920
H      -1.141881     -1.555855      0.868838
H      -1.972468      1.498016     -0.503739
H       0.536417      1.697678     -0.534850
