17
Extracted from Q-Chem output
C      -2.309953     -0.628858     -0.652932
C      -1.227066      0.437920     -0.742323
C      -0.116922      0.218228      0.257336
O       0.626339     -0.996421     -0.003320
C       1.162012      1.053467      0.112850
C       1.864156     -0.291473     -0.028013
O       2.677146     -0.559943      1.068064
H      -3.085959     -0.468199     -1.402814
H      -1.883798     -1.620723     -0.811656
H      -2.788101     -0.622923      0.329532
H      -0.792136      0.452249     -1.746663
H      -1.652885      1.431438     -0.564147
H      -0.519743      0.198851      1.276356
H       3.011913     -1.456451      0.991469
H       1.474268      1.623145      0.984702
H       1.191531      1.677284     -0.779355
H       2.398387     -0.496547     -0.962965
