10
Extracted from Q-Chem output
C      -1.418948      0.162430     -0.023397
C      -0.058165      0.153031      0.616129
O       1.913864     -1.100300     -0.600175
C       1.140145     -0.163710     -0.087502
N       1.049105      1.072688      0.027213
H      -1.339242      0.249373     -1.107652
H      -2.008028      1.003657      0.347335
H      -1.961822     -0.756731      0.209169
H      -0.054043      0.088652      1.703212
H       2.666509     -0.674708     -1.030525
