10
Extracted from Q-Chem output
C      -1.376931     -0.002677     -0.030495
C      -0.011153      0.008445      0.498021
O       1.442385     -0.842053     -0.750000
C       1.094019      0.586262     -0.180536
N       1.603438      1.658967     -0.295211
H      -1.392620      0.076584     -1.115487
H      -1.864884      0.891821      0.382641
H      -1.942553     -0.864367      0.323055
H       0.154309     -0.338031      1.516800
H       2.250663     -1.149593     -0.319306
