13
Extracted from Q-Chem output
C      -0.498827     -0.962024      0.887691
C      -0.022677      0.241738      0.091440
O       0.305786     -0.169186     -1.273902
C       1.470145     -0.640098     -1.617623
O       2.277001     -0.686222     -0.556169
C      -1.047932      1.275242     -0.021592
C      -1.894076      2.118185     -0.081249
H      -1.357471     -1.418827      0.396234
H      -0.797735     -0.645551      1.887261
H       0.300802     -1.696133      0.974567
H       0.868441      0.673843      0.546163
H       3.117149     -1.027177     -0.872392
H      -2.644920      2.869884     -0.147057
