13
Extracted from Q-Chem output
C      -0.556177     -0.992241      0.903498
C      -0.018925      0.212147      0.150110
O       0.404851     -0.202367     -1.189446
C       1.640497     -0.578927     -1.352858
O       2.456517     -0.585150     -0.354855
C      -1.018914      1.258572     -0.031458
C      -1.850180      2.110659     -0.144609
H      -1.386838     -1.438995      0.357742
H      -0.911789     -0.679243      1.885370
H       0.231849     -1.732931      1.034629
H       0.848036      0.626932      0.665680
H       2.823715     -0.935707     -1.454227
H      -2.586952      2.870927     -0.256204
