15
Extracted from Q-Chem output
C       2.365719     -0.841820      0.394368
C       1.139699     -0.324780      0.261818
C      -0.074135     -0.995403     -0.194173
C      -1.061753     -0.100077     -0.312618
N      -2.350339     -0.258938     -0.767398
C      -0.561934      1.269333      0.053294
N       0.769712      0.995403      0.554211
H       3.197092     -0.250090      0.754565
H       2.547622     -1.878347      0.150061
H      -0.564917      1.918833     -0.832535
H      -0.130907     -2.054070     -0.401414
H      -3.028736      0.396374     -0.419137
H      -2.695420     -1.202729     -0.802847
H      -1.197309      1.742342      0.812815
H       1.469634      1.701166      0.408995
