14
Extracted from Q-Chem output
C      -1.025343      0.649519     -1.345191
C       0.026489      0.945435     -0.309707
O       0.274884      2.064846      0.062917
C       0.094662     -0.625398      1.611690
C       0.773079     -0.239230      0.308132
O       0.784745     -1.383714     -0.524827
H      -1.623197      1.540897     -1.520148
H      -1.653244     -0.186785     -1.034692
H      -0.546855      0.344537     -2.278617
H      -0.925471     -0.966082      1.423120
H       0.064109      0.228439      2.288070
H       0.643758     -1.439798      2.083738
H       1.791346      0.107091      0.517525
H       1.411604     -1.249768     -1.237292
