14
Extracted from Q-Chem output
C      -1.097985      0.384265     -1.352926
C      -0.270300      0.640988     -0.163494
O      -0.502491      1.718101      0.502303
C       0.240634     -0.605773      1.639610
C       0.791616     -0.293217      0.316772
O       1.034615     -1.342375     -0.627697
H      -1.914607      1.094974     -1.447300
H      -1.473784     -0.638781     -1.266086
H      -0.470462      0.387034     -2.246403
H      -0.105467      1.463209      1.396073
H       0.968871     -0.784323      2.421919
H      -0.593269     -1.302321      1.625918
H       1.691874      0.324512      0.454913
H       1.706713     -1.062579     -1.253863
