14
Extracted from Q-Chem output
C      -1.932733      0.455127     -0.151480
O      -1.117786      0.076346      0.932827
C      -0.148431     -0.873189      0.597728
C       1.096183     -0.294057     -0.025350
O       1.863380     -1.298674     -0.526300
C       1.406299      0.994611     -0.059324
H      -2.491807     -0.405059     -0.540594
H      -2.638453      1.196695      0.220022
H      -1.349206      0.894996     -0.967718
H       0.136888     -1.387497      1.519394
H      -0.550349     -1.633715     -0.086094
H       2.684351     -0.934311     -0.865698
H       0.739428      1.716220      0.388065
H       2.322947      1.350917     -0.514208
