14
Extracted from Q-Chem output
C      -1.874965      0.483966     -0.191500
O      -1.162426      0.026620      0.935019
C      -0.216582     -0.952066      0.633738
C       1.034030     -0.442355     -0.012969
O       1.833566     -1.280481     -0.559589
C       1.597060      0.850301     -0.065602
H      -2.430669     -0.335843     -0.663631
H      -2.578958      1.236994      0.157616
H      -1.209830      0.937207     -0.935006
H       0.071852     -1.427976      1.575338
H      -0.616217     -1.746719     -0.014271
H       2.535116     -0.226420     -0.442133
H       1.328401      1.620889      0.646870
H       1.699827      1.204627     -1.090859
