12
Extracted from Q-Chem output
O      -2.159605      0.522440      0.578979
C      -1.571598     -0.311984     -0.319646
C       0.082820     -0.049042     -0.317847
N      -0.065281      0.524429     -1.386640
O       2.434558      0.785580     -0.794275
C       2.268311      0.151399      0.239399
C       1.004239     -0.381012      0.637439
H      -2.381629      1.357107      0.157532
H      -1.536099     -1.331847      0.065505
H      -2.006837     -0.314728     -1.316082
H       3.118355     -0.042390      0.915217
H       0.794086     -0.927043      1.540130
