17
smiles: [C:1]([O:2][H:13])([H:8])([H:9])[H:10].[C:3]1([H:11])=[C:4]([H:12])[C:5]1([C:6]([O:7][H:17])([H:15])[H:16])[H:14]
C        2.36860900       0.46713700      -0.42587800
O        1.61798100       1.28208000       0.44881500
C       -0.48963500      -1.09744900       1.34521900
C       -1.61245500      -1.70761100       1.20413300
C       -1.13506700      -0.96465400      -0.00780600
C       -1.77877500       0.32935100      -0.44422400
O       -0.86668700       1.19887100      -1.09126400
H        3.38141400       0.27939600      -0.05128700
H        2.43855500       0.89482600      -1.43253400
H        1.84917200      -0.48790200      -0.49608700
H        0.35949700      -0.85480300       1.95972500
H       -2.38065000      -2.34211700       1.60948700
H        2.05324400       2.13134300       0.52755300
H       -0.71424500      -1.53315300      -0.83932100
H       -2.56475100       0.13556100      -1.17804500
H       -2.24304600       0.81583100       0.42481800
H       -0.12003200       1.33504300      -0.50444100
