17
Extracted from Q-Chem output
C       2.374343      0.650306      0.260009
O       0.973818      0.629148     -0.034213
C       0.268709     -0.838142      0.312002
C      -0.452384     -0.516804      1.483284
C      -1.206561     -0.762036      0.197117
C      -1.922789      0.350600     -0.530962
O      -1.865001      0.219053     -1.939688
H       2.893693      0.071250     -0.501127
H       2.554654      0.222452      1.249959
H       2.716636      1.682919      0.228994
H       0.965903     -1.587582     -0.039553
H      -0.511629     -1.135125      2.367620
H       0.408034      0.823066      0.859426
H      -1.660505     -1.736795      0.003944
H      -2.983090      0.326562     -0.271987
H      -1.531057      1.321564     -0.205033
H      -0.938944      0.224699     -2.191440
