13
Extracted from Q-Chem output
N       1.346320      0.839280      1.027958
C       1.201070     -0.133448      0.098473
C       0.124369     -1.137162      0.429382
C      -1.111001     -0.411069     -0.175896
C      -0.479943      0.781582     -0.849141
O       0.848195      0.507249     -1.072154
H       1.909877      1.599269      0.644880
H       0.288864     -2.094470     -0.058838
H       0.071511     -1.288316      1.505101
H      -1.913736     -0.128068      0.503032
H      -1.534923     -1.068180     -0.938780
H       0.278684      1.352046      0.691220
H      -0.983027      1.286480     -1.670504
