15
Extracted from Q-Chem output
C      -1.009959      0.471038     -1.287480
C      -0.480268     -0.567422     -0.302705
C      -1.574820     -1.146022      0.598496
C       0.706191     -0.223585      0.535678
O       1.246075      0.899287      0.049536
C       2.343761      1.341181      0.627873
C       3.336306      1.812504      1.087781
H      -1.380750      1.352455     -0.759894
H      -1.839119      0.053736     -1.860921
H      -0.243851      0.799882     -1.989038
H      -0.052826     -1.419248     -0.863633
H      -1.164561     -1.886651      1.284380
H      -2.038070     -0.355546      1.192900
H      -2.355894     -1.614326     -0.002182
H       4.222036      2.215999      1.515345
