17
Extracted from Q-Chem output
C      -1.993425     -0.016562     -0.073664
C      -0.508227     -0.096868     -0.393677
C       0.290661      1.034540      0.238009
C       1.605394     -1.535825      0.236572
C       1.741113      0.891429     -0.144453
O       2.285424     -0.437928      0.135910
C       0.111753     -1.409161      0.077327
H      -2.158845     -0.052393      1.006849
H      -2.431162      0.911248     -0.449666
H      -2.538173     -0.850868     -0.520679
H      -0.384451     -0.025767     -1.481206
H      -0.069084      2.013769     -0.089992
H       0.185782      1.000260      1.328098
H       1.892861      1.060014     -1.212801
H       2.391536      1.567140      0.408597
H      -0.251658     -1.670307      1.083599
H      -0.196531     -2.260236     -0.536680
