14
Extracted from Q-Chem output
O       1.562446     -0.781872     -1.008358
C       1.030580     -0.264958      0.167078
C       0.294198      1.123267      0.204120
C      -0.688615      1.042752     -0.920425
C      -1.165995     -0.367883     -0.702598
C      -0.370309     -0.745757      0.550308
N      -0.450487      0.505190      1.352459
H       2.439763     -0.423068     -1.148566
H       1.719040     -0.316963      1.014035
H       0.817878      2.057120      0.390903
H      -1.397582      0.861455      1.454414
H      -0.963317     -0.947941     -1.609128
H      -2.250880     -0.389756     -0.559416
H      -0.543579     -1.692704      1.057141
