14
smiles: [C:1]([C@:2]12[C:3]([H:10])([H:11])[C@@:4]1([H:12])[O+:5]=[C-:6]2)([H:7])([H:8])[H:9].[H:13][H:14]
C        1.38944900      -0.35806100      -0.72417900
C        0.00624200       0.04456900      -0.33030600
C       -0.90143900      -0.78759700       0.58647400
C       -1.36843800      -0.37198200      -0.74671700
O       -1.79903900       1.00584800      -0.61729600
C       -0.56804400       1.44645700      -0.33208800
H        1.47022000      -1.44027200      -0.84205800
H        2.10535700      -0.04844800       0.03947600
H        1.67945600       0.10796200      -1.66638700
H       -0.58385100      -1.81961500       0.68507600
H       -1.35274900      -0.34657600       1.46749800
H       -1.75920600      -0.96713800      -1.55975100
H        1.08110100       1.76839300       2.59270700
H        0.77949900       2.04463400       1.97052300
