14
Extracted from Q-Chem output
C       1.440374     -0.465542     -0.791581
C       0.195888      0.020874     -0.118737
C      -0.759727     -0.880819      0.653503
C      -1.274043     -0.084725     -0.468864
O      -1.510976      1.265142     -0.044054
C      -0.156836      1.469497      0.093865
H       1.305557     -1.477027     -1.179413
H       2.276726     -0.489796     -0.089805
H       1.712603      0.185826     -1.622710
H      -0.627274     -1.936591      0.447140
H      -1.042021     -0.629148      1.670581
H      -1.775179     -0.424306     -1.363519
H       0.091993      1.528942      1.824654
H       0.218766      2.104304      1.144044
