14
Extracted from Q-Chem output
C      -1.836645      0.585868     -0.230140
C      -0.541931      0.003781      0.198849
C       0.019972     -1.334357      0.495756
N       0.563076     -0.371947     -0.443014
C       1.772349      0.156272     -0.603288
H      -2.491535      0.702530      0.633253
H      -1.688103      1.570569     -0.675346
H      -2.350664     -0.051323     -0.957794
H       0.505431      0.990197      1.147894
H      -0.341928     -2.256614      0.044767
H       0.548314     -1.451425      1.443621
H       1.839156      1.050578     -1.210818
H       1.352442      1.061031      0.988648
H       2.615633     -0.521622     -0.588730
