14
Extracted from Q-Chem output
C      -1.869963      0.048406     -0.386365
O      -1.373407     -0.156209      0.781745
C       0.261493     -1.144962      0.796537
C       0.845201     -0.321187     -0.148745
O       0.365008     -0.409690     -1.344031
C       1.667378      0.878215      0.200367
H      -2.046584      1.091880     -0.668825
H      -0.783751     -0.170068     -1.226400
H      -2.558497     -0.704247     -0.793164
H       0.521901     -1.062373      1.842678
H      -0.186826     -2.074072      0.475057
H       2.466534      1.009814     -0.529236
H       2.099706      0.797339      1.196687
H       1.035352      1.771031      0.163838
