10
Extracted from Q-Chem output
N       1.808010     -0.518974      0.496173
C       0.860819      0.228832      0.166837
C      -0.613532     -0.728079     -0.072826
C      -1.171786      0.388239      0.548048
O       0.581134      1.441821      0.014272
H       2.633154      0.029350      0.731428
H      -0.450695     -1.626164      0.502893
H      -0.771412     -0.852793     -1.137430
H      -1.198134      0.454088      1.630408
H      -1.672865      1.175928      0.005475
