13
Extracted from Q-Chem output
C      -1.901656     -0.668198     -0.026138
C      -0.606600     -0.083741     -0.533716
O       0.219421      0.205420      0.587292
C       1.405581      0.833766      0.271990
C       3.019207     -0.723893     -1.039937
N       2.310196     -0.021041     -0.441336
H      -2.413041      0.036198      0.630739
H      -2.560650     -0.902191     -0.863479
H      -1.713597     -1.586348      0.531148
H      -0.785137      0.842174     -1.097367
H      -0.092659     -0.788022     -1.197254
H       1.881775      1.124798      1.207277
H       1.246382      1.722192     -0.351315
