19
Extracted from Q-Chem output
C      -1.708095     -0.885618      0.002153
C      -0.595533      0.139419     -0.221586
C      -1.056721      1.516303      0.248466
C       1.116254     -1.668371      0.025133
O       1.975698     -1.921222     -0.774977
C       0.735239     -0.270252      0.457881
C       1.873472      0.706186      0.189651
H      -2.644205     -0.526477     -0.429100
H      -1.489926     -1.850959     -0.456943
H      -1.880420     -1.051419      1.069939
H      -0.394760      0.195226     -1.298290
H      -1.215227      1.523403      1.331091
H      -2.002873      1.782640     -0.226707
H      -0.337510      2.298786      0.007617
H       0.540343     -2.492578      0.493869
H       0.539883     -0.329323      1.537890
H       1.684202      1.672522      0.655865
H       2.010790      0.858098     -0.882091
H       2.813661      0.320132      0.584469
