13
Extracted from Q-Chem output
C      -1.680098      0.396504      0.075986
C      -1.019039     -0.909828      0.437433
O      -0.193578     -1.352948     -0.637474
C       0.788245     -0.778721      0.174492
C       1.485387      0.448796     -0.336387
H      -1.878794      0.996932      0.964661
H      -2.654442      0.076459     -0.308374
H      -1.203481      0.993925     -0.705902
H       0.128552     -0.603490      1.187644
H       1.451139     -1.548422      0.576577
H       0.792061      1.257048     -0.560346
H       2.210098      0.799498      0.400042
H       2.020523      0.201579     -1.254858
