10
Extracted from Q-Chem output
O      -1.797896      0.402381      1.254551
C      -0.742380      0.427284      0.496087
C       0.272936      1.100465      0.067299
C       1.142671     -0.080534      0.075007
N       0.891921     -1.200692     -0.641129
N      -0.273934     -1.646898     -0.592807
H      -1.831860      1.178444      1.831741
H       0.563433      2.126616     -0.130528
H       2.143223     -0.002785      0.487968
H      -0.393487     -2.288512     -1.387023
