14
smiles: [C:1]([C:2](=[O:3])[H:10])([H:7])([H:8])[H:9].[C:4](=[C:5]=[C:6]([H:11])[H:14])([H:12])[H:13]
C       -2.16224200      -0.50190700      -0.48502400
C       -0.98158400      -1.25074200       0.05501600
O       -0.31876300      -2.02627800      -0.57649900
C        0.89299000       1.87636400       0.25900000
C        1.65698000       0.82557600       0.23848400
C        2.42236800      -0.22422400       0.21621700
H       -2.33308000      -0.75030600      -1.53070700
H       -3.04737200      -0.74483400       0.10890100
H       -1.99241600       0.57242200      -0.37538900
H       -0.73677000      -1.04499600       1.11892600
H        2.02430100      -1.20050700      -0.03361900
H        0.75119100       2.47937100      -0.62997600
H        0.38014100       2.17646200       1.16506600
H        3.47868800      -0.14843400       0.44575600
