9
Extracted from Q-Chem output
O      -1.768627      1.417472      0.331091
C      -0.732357      0.868642      0.170079
C      -0.429574     -0.600295     -0.019187
N       1.006136     -0.540056     -0.153492
C       1.535501      0.672087     -0.073289
O       0.481701      1.522328      0.122317
H      -0.759040     -1.170644      0.850274
H      -0.930959     -0.980639     -0.909984
H       1.591515     -1.342474     -0.298083
