13
smiles: [C:1]([C:2][H:9])([H:6])([H:7])[H:8].[C:3]1([H:10])([H:11])[C:4]([H:12])([H:13])[O:5]1
C        1.80048900      -0.39908000      -0.32878500
C        0.74693200       0.40864500      -0.91200000
C       -1.26486000      -0.65650000       0.50446900
C       -1.64935600       0.73445500       0.29355200
O       -0.31408300       0.38652100       0.60845800
H        2.35277600      -0.04789300       0.54934400
H        1.62472400      -1.47480000      -0.31316200
H        2.46530400      -0.21299900      -1.21235300
H        0.96855000       1.45901900      -0.63849600
H       -1.14149500      -1.31382700      -0.35130800
H       -1.52094700      -1.14659000       1.43934000
H       -2.18684600       1.26549100       1.07385600
H       -1.80835500       1.09881200      -0.71725900
