15
Extracted from Q-Chem output
C      -1.247946      0.704865      0.482015
O      -0.776804      1.133511     -0.805354
C       0.327066      0.331813     -1.111399
C      -0.038700     -1.128838     -0.878203
C      -0.319680     -0.225257      1.175670
C       1.094269      0.205235      1.022878
O       1.415490      0.665588     -0.299760
H      -2.254590      0.295260      0.373318
H      -1.312114      1.573172      1.151961
H       0.607042      0.530596     -2.145077
H       0.804721     -1.794044     -1.057122
H      -0.916417     -1.424347     -1.451162
H      -0.345804     -1.382643      0.225314
H       1.203270      1.036077      1.733281
H       1.806985     -0.570880      1.310006
