13
Extracted from Q-Chem output
O      -1.601996      1.689902      0.355055
C      -1.299404      0.457872      0.674168
C      -0.980801     -0.282475     -0.593104
C       0.224483     -1.204228     -0.457459
O       1.431188     -0.605417     -0.963770
C       1.963236      0.384266     -0.254814
O       1.527334      0.832099      0.765752
H      -1.832281      2.160849      1.163262
H       0.368447     -1.485654      0.587197
H      -1.866762     -0.914177     -0.737856
H      -0.884069      0.356651     -1.479338
H       0.113149     -2.097887     -1.066751
H       2.877749      0.738163     -0.750140
