13
Extracted from Q-Chem output
O      -1.003132      1.443062      0.285076
C      -1.330396      0.122913      0.411634
C      -1.321121     -0.521667     -0.958175
C       0.045669     -0.815654     -0.471224
O       1.039620      0.005978     -1.000092
C       2.004679      0.402553     -0.154183
O       2.090648      0.094158      0.994869
H      -0.944429      1.804771      1.171915
H      -0.263317     -0.518468      0.803480
H      -1.978629     -1.374451     -1.080170
H      -1.359184      0.171851     -1.792420
H       0.355787     -1.838034     -0.275452
H       2.704079      1.052957     -0.693057
