9
Extracted from Q-Chem output
O       2.111460     -0.283664     -0.751216
C       1.015675     -0.586989     -0.446562
C      -0.000493      0.832688      0.147989
C      -0.985909     -0.135651      0.307441
O       0.273561     -1.579527     -0.383736
H      -0.062635      1.511640     -0.692701
H       0.515306      1.205235      1.023584
H      -1.725013     -0.327884     -0.458885
H      -1.141952     -0.635847      1.254085
