13
Extracted from Q-Chem output
O       1.587528      1.440617     -1.428227
C       1.672171      0.718960     -0.477120
C       0.728815     -0.449422     -0.233093
O       0.956001     -0.894101      1.083469
C      -1.789837     -0.926176      0.001067
C      -1.642723      0.443791      0.549726
C      -0.708295     -0.038780     -0.492210
H       2.460622      0.839565      0.291757
H       1.003881     -1.224634     -0.962876
H       0.604397     -1.781501      1.183401
H      -2.378160      1.198344      0.294798
H      -1.362678      0.438701      1.601293
H      -0.862631      0.351402     -1.495769
