14
Extracted from Q-Chem output
C      -2.080174      0.002767     -0.338258
C      -0.628017      0.185164     -0.069349
C       0.388066     -0.922550     -0.083978
C       1.668825     -0.193867      0.246205
N       2.816047     -0.685648      0.355080
O       1.378251      1.141288      0.417497
C       0.019102      1.302788      0.220452
H      -2.616675      0.950045     -0.279487
H      -2.244104     -0.418506     -1.333715
H      -2.529156     -0.687622      0.380765
H       0.471174     -1.419418     -1.053749
H       3.501678      0.029112      0.585377
H       0.190535     -1.699559      0.658606
H      -0.335893      2.316605      0.328440
