19
Extracted from Q-Chem output
C      -1.998640     -0.959058     -0.438125
C      -0.818635     -0.046071     -0.127605
C      -1.296977      1.259654      0.548412
C       0.076729     -0.602372      0.911376
O       1.573232     -1.651687      0.023593
C       1.539795     -0.375943      0.706139
C       2.135537      0.675653     -0.200237
H      -2.696790     -0.475416     -1.126611
H      -1.652597     -1.885036     -0.900123
H      -2.529929     -1.219564      0.479179
H      -0.320812      0.228447     -1.065558
H      -1.808777      1.046390      1.488141
H      -1.997495      1.762532     -0.120106
H      -0.474952      1.948190      0.752272
H       1.388865     -2.335234      0.677456
H       2.109654     -0.423593      1.637991
H       1.659255      0.696560     -1.179134
H       3.198316      0.474647     -0.345085
H       2.038468      1.660857      0.259691
