9
Extracted from Q-Chem output
C      -1.313242      0.225020     -0.278453
C      -0.279356      1.145026     -0.831705
C       0.288753      0.404072      0.135195
C       1.556531     -0.363463      0.189175
O       2.626569      0.126654     -0.010961
H      -1.999041      0.573559      0.488019
H      -0.512245     -0.252715      0.805425
H      -1.678805     -0.573739     -0.920430
H       1.434356     -1.436704      0.440307
