16
smiles: [C:1]1([H:7])([H:8])[C:2]([H:9])([H:10])[C:3]1=[C:4]([H:11])[H:12].[C:5](=[C:6]([H:15])[H:16])([H:13])[H:14]
C       -1.51778900      -0.09027900       0.83281100
C       -1.52773500      -0.42095000      -0.66093800
C       -0.77183800      -1.22629000       0.29598000
C        0.02042800      -2.24977500       0.51722400
C        1.86576800       0.98442600      -0.22111700
C        1.41899000       2.18525800      -0.54632700
H       -2.42189000      -0.28452200       1.39826300
H       -0.96806800       0.78799600       1.15108000
H       -0.98209700       0.23881500      -1.32561600
H       -2.43849200      -0.83232100      -1.08046100
H        0.35161900      -2.88862500      -0.29331900
H        0.36459600      -2.48727900       1.51720100
H        2.05908900       0.22664500      -0.97184800
H        2.05795300       0.70918900       0.80971700
H        1.22680900       2.46045700      -1.57716800
H        1.22566600       2.94303000       0.20440700
