11
Extracted from Q-Chem output
C      -1.783521     -0.438567     -0.105798
C      -0.679539      0.459318      0.218548
C       0.031083      1.378761      0.564953
O       2.762786      0.813263      0.242986
C       2.101181     -0.122791     -0.123788
N       0.959490     -0.640392     -0.301109
H      -1.689654     -1.364418      0.460778
H      -1.761350     -0.685010     -1.166957
H      -2.733518      0.037370      0.135017
H       0.715864      2.145486      0.847971
H       2.487306     -1.142019     -0.559878
