15
Extracted from Q-Chem output
O       0.102197      1.382477      0.663524
C       1.314781      1.024875     -0.009512
C       0.934994     -0.145871     -0.906683
C      -0.134713     -0.832413     -0.074034
O       0.514838     -1.699791      0.844738
C      -0.764435      0.339814      0.641856
C      -1.965807      0.377835      1.203784
H      -2.313686      1.251253      1.737720
H       2.061953      0.736369      0.734274
H       1.665484      1.903557     -0.549184
H       1.766547     -0.813408     -1.125416
H       0.505244      0.213275     -1.843506
H      -0.864933     -1.383443     -0.673296
H      -0.073248     -1.837046      1.590894
H      -2.623378     -0.475992      1.119151
