12
smiles: [C:1]([O:2][C:3](=[O:4])[C:5](=[O:6])[H:11])([H:7])([H:8])[H:9].[H:10][H:12]
C        1.74917800      -0.54587100      -0.15103500
O        0.45508300      -0.31999300       0.41353700
C       -0.05616800       0.89460100       0.21386600
O        0.46896200       1.78463800      -0.38368000
C       -1.44058000       0.98033900       0.87537000
O       -2.08381800       1.98263700       0.85131100
H        1.71197800      -0.42846100      -1.23391400
H        2.46832800       0.16225600       0.25983200
H        2.01653500      -1.56441400       0.11524800
H       -1.52456800      -1.63219400      -1.02801000
H       -1.78478300       0.05143500       1.36578000
H       -2.17351700      -1.60670800      -1.39218100
