11
Extracted from Q-Chem output
O      -2.178908      1.077774      0.053700
C      -0.989819      1.187892      0.113143
C      -0.068223     -0.000866     -0.020947
C      -0.000562     -0.964157      1.113240
O      -0.681405     -1.214010     -0.441078
C       1.222592      0.199295     -0.757767
O       1.755071      1.265383     -0.873634
H      -0.484523      2.153652      0.284789
H       0.934837     -1.536150      1.084186
H      -1.176598     -1.449085      0.518030
H       1.658605     -0.739309     -1.154993
