16
Extracted from Q-Chem output
C       2.092649     -0.014475      0.077003
O       0.938070     -0.614851      0.640973
C      -0.594815     -0.012692      0.013049
C      -0.554268      1.466964     -0.059362
C      -0.879081     -1.133691     -0.786945
C      -1.607049     -0.950670      0.534013
H       2.963036     -0.621610      0.325982
H       2.000943      0.056942     -1.012994
H       2.220447      0.981290      0.501834
H      -1.556992      1.799848     -0.336340
H      -0.304229      1.918851      0.901746
H       0.137164      1.826532     -0.822825
H      -1.329919     -1.112944     -1.768902
H       0.521853     -1.358301     -0.064090
H      -1.373797     -1.609743      1.365398
H      -2.618550     -0.545181      0.574066
