16
smiles: [C:1](=[C:2]([N:3]([C+:4]([O-:5])[C:6](=[C:7]([H:14])[H:15])[H:13])[H:12])[H:11])([H:9])[H:10].[H:8][H:16]
C        2.06062700      -1.29656000       1.48931600
C        0.95836300      -0.80946800       0.93355200
N        0.75908500       0.53412400       0.64601600
C       -0.31392300       1.16990600       0.06918000
O       -0.26001600       2.36442700      -0.13596200
C       -1.51453400       0.35627900      -0.27913000
C       -2.53493800       0.92732900      -0.90022400
H        1.12116700      -0.95948600      -2.14363200
H        2.14767200      -2.35549000       1.68186200
H        2.89604600      -0.66311700       1.76343300
H        0.14299800      -1.46730100       0.66819600
H        1.51431800       1.16948600       0.85635100
H       -1.55293300      -0.69296300      -0.01842800
H       -2.49604400       1.97950400      -1.15641400
H       -3.42149800       0.36417100      -1.16288800
H        0.50910900      -0.66198100      -2.44573700
