14
smiles: [C:2]1([H:9])=[C:3]([H:10])[O:4][C:5]([H:12])=[N:6][C:7]1([H:13])[H:14].[O:1]([H:8])[H:11]
O       -0.25589300      -2.66693800       2.12115600
C       -0.61430600       0.90503600      -1.42370400
C        0.48807900       1.63020800      -1.40652700
O        1.48437600       1.45325400      -0.47713400
C        1.26177900       0.46713700       0.43724700
N        0.27223200      -0.29272800       0.53995700
C       -0.83172300      -0.17218500      -0.40330900
H        0.01176900      -1.87144000       1.65931400
H       -1.36073100       1.09581300      -2.18374500
H        0.73010500       2.42251500      -2.10033300
H       -0.67029600      -2.36453100       2.93023900
H        2.10088800       0.40082000       1.12302800
H       -0.97180400      -1.14541100      -0.88513600
H       -1.74768900       0.00780400       0.16897500
