12
Extracted from Q-Chem output
O       0.414138      0.822647      1.763851
C       0.585043      0.348530      0.673500
C       1.880723     -0.118985      0.212804
C       2.934479     -0.515363     -0.194232
C      -0.534873      0.184701     -0.330126
C      -2.268888     -0.373385     -0.022299
N      -1.732824      0.940808      0.007507
H       3.879332     -0.865554     -0.541445
H      -0.228266      0.266103     -1.368291
H      -0.832177     -0.945067     -0.088275
H      -2.462561     -0.581971     -1.092458
H      -1.622641      1.229363      0.977562
