10
smiles: [C:3](\[C:4]([H:6])([H:8])[H:9])(=[N:5]\[H:10])[H:7].[O+:1]#[C-:2]
O        2.87838800       0.18605300       2.06582900
C        2.28171800      -0.53658600       1.44626500
C       -0.19541100       0.58391800      -0.60177800
C       -0.95003500      -0.70942700      -0.65119700
N       -0.32221300       1.52014100       0.23570200
H       -0.25803100      -1.55319200      -0.59334600
H        0.55114600       0.72761500      -1.38844400
H       -1.48186500      -0.79793300      -1.60177800
H       -1.66969100      -0.78646200       0.16517000
H       -1.03989300       1.29321700       0.92560600
