10
Extracted from Q-Chem output
O       1.718585     -0.370152      1.562261
C       1.265667     -0.353816      0.494191
C       0.212634      0.566334     -0.380776
C      -0.720054     -0.601591     -0.402213
N      -0.527075      1.597783      0.029641
H       0.683502     -1.345501     -0.177384
H       0.715886      0.706425     -1.342278
H      -1.362267     -0.745805     -1.267172
H      -1.171275     -0.878024      0.548127
H      -0.939375      1.371500      0.934928
