16
Extracted from Q-Chem output
O      -1.780793     -0.380080      1.379638
C      -1.307386     -0.617465      0.089297
C      -0.743308      0.646380     -0.587911
C       0.729492      0.140342      0.032470
C       1.595836      0.711679     -0.972049
N       0.884602      0.841519      1.207422
C       0.090193     -1.263140      0.042104
H      -1.120070      0.185328      1.812207
H      -2.104941     -1.114985     -0.462776
H      -1.048063      1.619446     -0.214689
H      -0.773926      0.577206     -1.672367
H       1.281694      0.841514     -2.001439
H       2.440077      1.299768     -0.635584
H       1.232593      0.211861      1.935544
H       0.269456     -1.829784     -0.872394
H       0.358774     -1.857754      0.916172
