9
Extracted from Q-Chem output
N      -1.272612     -0.180495      1.414582
C      -0.716436      0.308129      0.417188
N       1.086856      0.168627      0.279706
C       0.870845     -0.608560     -0.716262
O      -0.380487     -0.773704     -0.883088
H      -2.012715      0.405052      1.778869
H      -0.899557      1.231762     -0.125685
H       1.988490      0.466385      0.618968
H       1.600170     -1.080402     -1.372732
