11
Extracted from Q-Chem output
C      -1.391161     -0.360460     -0.681673
C      -0.665051      0.654413      0.070289
O       1.449075      1.190804      1.128466
C       0.789020      0.484762      0.122005
C       1.319026     -0.888417      0.050315
N       1.658026     -1.980129     -0.038789
H      -1.681994     -1.014090      0.165219
H      -2.329321      0.002185     -1.098868
H      -0.835749     -0.993622     -1.382913
H       0.793776      1.797502      1.491090
H       0.976976      0.945472     -0.882897
