12
Extracted from Q-Chem output
O      -2.068531     -0.118953     -0.545590
C      -1.176193     -0.539055      0.460126
C       0.265754     -0.180129      0.159977
C       0.644665      1.193680      0.165119
C       0.891635      2.368110      0.176393
C       1.134432     -1.115332     -0.161767
N       1.938665     -2.005803     -0.329746
H      -1.999101      0.834931     -0.633173
H      -1.447339     -0.105032      1.429650
H      -1.278202     -1.621487      0.533459
H       2.087674     -2.322307     -1.283618
H       1.130703      3.405040      0.192133
