12
Extracted from Q-Chem output
O      -1.899153     -0.375660     -0.690635
C      -1.110639     -0.574495      0.467058
C       0.340822     -0.216705      0.280651
C       0.746401      1.134226      0.186644
C       1.045087      2.296985      0.119057
C       1.250790     -1.224451     -0.024801
N       1.992624     -2.105443     -0.353273
H      -1.883393      0.558864     -0.911664
H      -1.498857      0.009625      1.308839
H      -1.206367     -1.630862      0.717583
H       0.902499     -1.254720     -1.138410
H       1.324611      3.322762      0.071361
