15
smiles: [C:1]([C@@:2]([O:3][C:4]#[N:5])(/[C:6](=[N:7]/[H:14])[H:13])[H:11])([H:8])([H:9])[H:10].[H:12][H:15]
C        1.39484800       0.08229700       0.55784200
C        0.76678900      -0.19255700      -0.78496400
O        0.30616000      -1.58196100      -0.88547900
C       -0.61133500      -1.92334500      -0.05416300
N       -1.43933400      -2.25725900       0.67433800
C       -0.38031300       0.72031500      -1.14668500
N       -0.44296500       1.88708600      -0.68004800
H        0.66419800      -0.04630900       1.35776000
H        1.73816400       1.11533200       0.58238100
H        2.23804300      -0.58667900       0.72607900
H        1.50931100      -0.14554900      -1.58399200
H       -2.09617100       0.15528800       2.01932500
H       -1.10577200       0.29473700      -1.84934000
H       -1.25217900       2.38693300      -1.04018000
H       -1.97158100       0.87755800       2.15084700
