15
Extracted from Q-Chem output
C       1.772519      0.090697      0.422790
C       0.847740     -0.272188     -0.705737
O       0.303526     -1.631044     -0.514280
C      -0.845958     -1.264629      0.018464
N      -1.774665     -1.468987      0.731629
C      -0.497320      0.441198     -0.732113
N      -0.856610      1.392522      0.102664
H       1.246946      0.071426      1.377644
H       2.155082      1.100110      0.268663
H       2.611591     -0.604054      0.459342
H       1.353321     -0.255642     -1.672904
H      -2.188012     -0.072797      1.060242
H      -1.024294      0.312111     -1.681115
H      -1.630274      1.931319     -0.272548
H      -1.858182      0.736872      1.017467
