12
Extracted from Q-Chem output
N       2.626563     -1.459938     -1.305823
C       1.919901     -0.806067     -0.681432
C       1.003861     -0.005979      0.109710
C       0.588687      1.359021     -0.360600
C      -1.503418     -0.083899      0.419433
N      -0.348033      0.151609     -0.441422
H       0.985192     -0.318875      1.152486
H      -1.274057      0.288983      1.416090
H       0.241117      1.914735      0.517927
H      -2.353896      0.469436      0.023067
H      -1.741377     -1.147607      0.467446
H      -0.465457     -0.189614     -1.386065
