12
Extracted from Q-Chem output
O       1.390192      0.433444      0.171086
C       0.683375     -1.055264     -0.132147
C      -0.578744     -0.773395      0.640322
C      -0.967550      0.539167     -0.048425
C       0.302986      0.860113     -0.780618
O       0.588368      1.499748     -1.730260
H       2.191591      0.470225     -0.369260
H       1.404334     -1.735541      0.329318
H      -1.301352     -1.566247      0.443252
H      -0.478321     -0.661176      1.727227
H      -1.218785      1.363834      0.623752
H      -1.763656      0.426109     -0.781197
