12
Extracted from Q-Chem output
C       2.687914      0.081497     -0.049036
C       1.589913     -0.378275      0.076041
C       0.238912     -0.908501      0.237099
C      -0.768453      0.189530      0.490560
C      -1.552232      0.773132     -0.589699
O      -2.124738     -0.164246      0.312340
H       3.667020      0.483567     -0.160836
H       0.220785     -1.611467      1.074378
H      -0.054874     -1.466419     -0.655206
H      -0.571316      0.799769      1.369496
H      -1.409134      0.412089     -1.604651
H      -1.923798      1.789323     -0.500486
