12
smiles: [C-:5]#[O+:6].[C:1]([C:2]([C:3][O:4][H:12])([H:10])[H:11])([H:7])([H:8])[H:9]
C       -1.89825500      -0.17269600       0.59458300
C       -0.50690800      -0.47330100       1.13756500
C        0.70301200      -0.05307600       0.36799900
O        0.31985700       0.56023800      -0.72685900
C        3.24439200       0.70604600      -1.03928200
O        4.28674500       0.48450200      -0.68361000
H       -2.05071000       0.89956700       0.46430000
H       -2.05616100      -0.64484600      -0.37606700
H       -2.66407100      -0.54139800       1.27845000
H       -0.35812000      -1.54691700       1.31034200
H       -0.35501400      -0.04024600       2.13474100
H        1.10815600       0.82570200      -1.21142200
