12
Extracted from Q-Chem output
C      -1.788702     -0.201888      0.649540
C      -0.320367     -0.399546      1.000845
C       0.686608      0.125835      0.041189
O       0.291211      0.703783     -0.988898
C       2.560552      0.486932     -0.639493
O       3.591157      0.229965     -0.208787
H      -2.027884      0.856655      0.543259
H      -2.035987     -0.690301     -0.293579
H      -2.428937     -0.620008      1.427677
H      -0.072363     -1.458184      1.139266
H      -0.066747      0.053595      1.966338
H       1.384380      0.916738     -1.386615
