16
smiles: [C:1]([C:2]#[N:3])([H:8])([H:9])[H:10].[O:4]([C:5]1([H:12])[C:6]([H:13])([H:14])[C:7]1([H:15])[H:16])[H:11]
C        2.97397400      -0.73237900      -0.15971500
C        2.71645300       0.66418100       0.16112800
N        2.51300000       1.76371800       0.41429400
O       -0.17998700       0.24246200      -0.65464200
C       -1.14189400       0.03696600       0.33544200
C       -2.37458100      -0.67514200      -0.08724900
C       -2.43466000       0.78899500       0.26824500
H        3.27874100      -1.26981800       0.73756000
H        2.07183600      -1.19301800      -0.56059100
H        3.76795900      -0.80403100      -0.90221200
H        0.23395300       1.09397500      -0.50156600
H       -0.74022900      -0.19130900       1.31937400
H       -2.44038400      -0.92717300      -1.13719400
H       -2.81445400      -1.39579500       0.58890300
H       -2.55131100       1.48651500      -0.55105700
H       -2.91242300       1.08350300       1.19359000
