14
Extracted from Q-Chem output
C      -1.025316     -1.098886     -0.312474
C       0.119795      0.056336     -0.461625
C      -0.971543      1.146592      0.005587
C      -1.092187     -0.101606      0.710807
O       1.505122     -0.038353      1.547696
C       1.507847     -0.052440      0.153145
H      -1.624957     -1.062062     -1.227480
H      -0.719044     -2.101824     -0.029513
H       0.156817      0.186201     -1.538830
H      -1.580251      1.395466     -0.868844
H      -0.631894      2.012027      0.566258
H       0.564906     -0.159094      1.802028
H       1.969622     -0.973197     -0.230209
H       2.107792      0.787792     -0.215280
