14
Extracted from Q-Chem output
C      -0.942373     -1.124971     -0.231280
C       0.157958      0.056242     -0.532396
C      -0.891605      1.190388      0.030595
C      -0.936208     -0.057923      0.707166
O       1.406584     -0.202769      1.487209
C       1.550123     -0.055409      0.160124
H      -1.648795     -1.171634     -1.054984
H      -0.545480     -2.074785      0.109714
H       0.086990      0.181414     -1.607007
H      -1.592049      1.447461     -0.758710
H      -0.454554      2.023607      0.569534
H      -0.059441     -0.171025      1.522852
H       2.056196     -0.901982     -0.350419
H       2.099365      0.858333     -0.151132
