13
Extracted from Q-Chem output
N      -1.827975      0.703457     -0.185043
C      -0.443184      0.436606      0.010455
C       0.015950     -0.891060      0.006796
O      -0.684899     -2.025437     -0.008461
N       1.340392     -0.861759     -0.038410
C       1.782291      0.457840     -0.088194
C       0.743366      1.368630     -0.141436
H      -1.950843      1.400588     -0.905991
H      -2.291349      1.033415      0.649089
H      -1.607370     -1.763606     -0.138133
H       1.918970     -1.686511     -0.009747
H       2.846868      0.635190     -0.110083
H       0.061392      1.019931      0.969936
