11
Extracted from Q-Chem output
O       1.530951     -0.789194      0.531650
C       0.229388     -0.288252      0.582483
C      -0.052537      1.145221      0.109300
O      -1.155427      0.692395     -0.687488
C      -0.780710     -0.680085     -0.506156
H       1.892152     -0.635047     -0.344603
H      -0.132836     -0.483769      1.590679
H      -0.353789      1.883232      0.855350
H       0.755684      1.560303     -0.507078
H      -1.627185     -1.307735     -0.220357
H      -0.305692     -1.097069     -1.403782
