11
Extracted from Q-Chem output
O       1.487037     -0.211968      0.033336
C       0.199000     -0.248498      0.665567
C       0.085911      1.195931      0.445882
O      -0.337213     -0.053853     -1.476011
C      -0.752141     -0.796855     -0.388078
H       1.125580     -0.185165     -0.928918
H       0.260419     -0.640796      1.678656
H      -0.699077      1.642026     -0.144820
H       0.838245      1.836601      0.891865
H      -1.791671     -0.600258     -0.075114
H      -0.645681     -1.883559     -0.537436
