13
Extracted from Q-Chem output
C       1.596850     -0.006676     -0.109760
C       0.529051      0.048709      0.795389
C      -0.361599      1.168230      0.688663
C      -1.366754      0.713893     -0.107259
C      -1.080806     -0.660352     -0.407902
N      -0.257416     -1.101545      0.661254
H       2.148005     -0.935235     -0.235173
H       0.345264     -0.309396     -1.107543
H       2.167820      0.889477     -0.328168
H      -0.113614      2.193081      0.917097
H      -2.158430      1.288502     -0.565404
H      -1.816550     -1.336811     -0.831935
H       0.285883     -1.923810      0.442115
