15
Extracted from Q-Chem output
C      -0.398730     -0.473214     -0.916882
C      -0.863667      0.723126     -0.075360
C      -1.826361      0.482664      1.067335
C       0.533620      0.543828      0.144210
C       1.746007      0.580352      0.532005
C       2.701887     -0.329765      0.065501
O       3.815251     -0.669667      0.127945
H      -0.462987     -0.317765     -1.987785
H       1.017127     -1.028512     -1.011977
H      -0.804513     -1.421356     -0.579330
H      -1.105402      1.599840     -0.673101
H      -1.540133     -0.403327      1.635634
H      -1.831878      1.334248      1.748704
H      -2.837458      0.337214      0.683553
H       1.910296     -1.166341     -0.878310
