12
Extracted from Q-Chem output
N       1.660917     -0.285104      0.317793
C       0.590627     -0.077803     -0.585709
C      -0.433433     -1.025535     -0.758927
O      -1.820632      0.508977     -0.587968
C      -0.786641      0.729541      0.109733
N      -0.472491      1.300527      1.182796
H       1.806088      0.572894      0.840266
H       1.432749     -0.994752      1.002120
H       0.855360      0.500808     -1.467183
H      -0.935059     -1.198441     -1.697351
H      -0.633279     -1.735253      0.038847
H      -1.284557      1.723837      1.625082
