8
Extracted from Q-Chem output
O       1.917026      0.545066      0.082753
C       0.684796      0.100868      0.192152
N      -0.422525      0.757456      0.062237
C      -1.330986     -0.239695      0.286708
N      -0.831016     -1.407501      0.533400
O       0.548980     -1.178847      0.469520
H       1.873627      1.485764     -0.119875
H      -2.399871     -0.088315      0.265092
