8
Extracted from Q-Chem output
O       1.996334      0.542511      0.097792
C       0.913273     -0.081294      0.237397
N      -0.135561      0.709506      0.059889
C      -1.195185     -0.118257      0.248016
N      -0.850647     -1.336882      0.521617
O       0.579085     -1.314906      0.514923
H       0.941879      1.427473     -0.100419
H      -2.235043      0.163133      0.186081
