19
smiles: [C:1]([C@@:2]1([H:11])[C@@:3]2([C:4]([H:13])([H:14])[H:15])[C:5]([H:16])([H:17])[C@@:6]12[H:18])([H:8])([H:9])[H:10].[O:7]([H:12])[H:19]
C        1.85373200       0.31160200       0.03850600
C        0.53443400       0.36698100      -0.69737700
C       -0.50465700      -0.70826200      -0.68253400
C       -1.16283900      -1.42256500      -1.81349600
C       -0.87509600      -0.67203700       0.76283900
C       -0.78781600       0.58893100      -0.03329000
O        0.23213400       1.81913700       2.77883900
H        2.59502000      -0.24265700      -0.54155500
H        1.76291800      -0.17325900       1.01053500
H        2.24195200       1.31890500       0.20488600
H        0.61304600       0.85553300      -1.66937100
H       -0.21601200       1.44632000       2.01864600
H       -1.11210600      -0.82860700      -2.72926900
H       -0.68349700      -2.38355100      -2.01300600
H       -2.21515500      -1.61582900      -1.59145800
H       -0.14837000      -0.88790200       1.54199000
H       -1.87723900      -1.02112700       0.99671300
H       -1.55795200       1.31112600      -0.25233500
H        1.00075900       2.26914600       2.42589700
