11
Extracted from Q-Chem output
C      -1.619349     -0.276606     -0.067414
C      -0.187738      0.119653      0.061695
C       0.443937      1.391061     -0.039008
N       1.830615      1.044539     -0.145917
C       1.899976     -0.230244     -0.200300
O       0.747302     -0.904365     -0.074671
H      -1.871494     -1.097403      0.603348
H      -2.246439      0.584801      0.154075
H      -1.815214     -0.591199     -1.092627
H      -0.023906      0.748772      1.112808
H       2.789320     -0.835968     -0.317410
