9
Extracted from Q-Chem output
C      -0.957729     -0.287777      0.117256
C       0.296599      0.554544     -0.051802
C       2.405078     -0.933283     -0.240605
N       1.464272     -0.255121     -0.155177
H      -1.830479      0.362506      0.185903
H      -0.900835     -0.888495      1.024957
H      -1.090644     -0.958086     -0.731811
H       0.432240      1.228006      0.796149
H       0.236739      1.167247     -0.952935
