17
smiles: [C:1]([C-:2]([N+:3]1=[C:4]([H:13])[C@:5]1([C:6]([H:15])([H:16])[H:17])[H:14])[H:11])([H:7])([H:8])[H:9].[H:10][H:12]
C       -1.61277800       1.22548600      -0.48975600
C       -1.15543200      -0.19070700      -0.58224100
N       -0.08538000      -0.60622300      -0.00420100
C        0.82944700      -1.52954700       0.34082200
C        1.14766500      -0.09379000       0.57078500
C        2.00893700       0.75306500      -0.33448500
H       -2.62025400       1.28837000      -0.06913300
H       -0.94575200       1.80752500       0.14685400
H       -1.64386900       1.70276500      -1.47333700
H       -2.01893300      -2.17854100       1.82782500
H       -1.74023200      -0.92883600      -1.11996900
H       -1.29109700      -2.26615300       1.69715700
H        1.26846800      -2.19897700      -0.38824200
H        1.06359600       0.27077400       1.59431900
H        3.04598100       0.69501000       0.00217400
H        1.71575600       1.80587900      -0.32426300
H        1.96399700       0.38701800      -1.36189900
