17
Extracted from Q-Chem output
C      -1.921712      1.095624     -0.332128
C      -1.462903     -0.320733     -0.038371
N      -0.098094     -0.521957     -0.491662
C       0.653267     -1.571090      0.168309
C       0.951869     -0.143304      0.431516
C       2.160934      0.548418     -0.130938
H      -2.961283      1.238438     -0.031842
H      -1.311484      1.822257      0.209131
H      -1.834801      1.309809     -1.398173
H      -1.563645     -0.532293      1.039685
H      -2.096890     -1.039355     -0.565049
H       0.153140     -2.134137      0.952249
H       1.308639     -2.156179     -0.467739
H       0.614627      0.224886      1.400466
H       3.015572      0.451221      0.542256
H       1.963969      1.612159     -0.281379
H       2.428796      0.116236     -1.095780
