11
Extracted from Q-Chem output
O       2.238540     -1.156116      0.746267
C       1.192541     -1.014923      0.238477
C       1.179972      0.920909     -0.359788
C       0.167200      1.492106      0.035273
N      -1.346748      0.059704      0.567656
C      -1.089178     -0.970524     -0.159741
N       0.122408     -1.543209     -0.182609
H       2.160666      0.983541     -0.782623
H      -0.523084      2.250886      0.324046
H      -2.287220      0.403023      0.395700
H      -1.821067     -1.432569     -0.822702
