14
Extracted from Q-Chem output
C      -1.518849     -0.223388     -0.647763
C      -0.605830      0.088576      0.478742
O       0.762983     -1.373402      0.036997
C       0.186426      1.293048      0.466224
C       1.593338      0.887364     -0.109476
C       1.801395     -0.399558     -0.243602
H      -1.055779      0.045320     -1.597547
H      -1.826490     -1.265914     -0.671540
H      -2.410841      0.402722     -0.526416
H      -0.792974     -0.417532      1.419299
H       1.046443     -1.942552      0.763890
H      -0.227946      2.046425     -0.205029
H       0.344412      1.725000      1.452984
H       2.702341     -0.874912     -0.613150
