14
Extracted from Q-Chem output
C      -1.829703     -0.373354     -0.133630
C      -0.439897     -0.001164     -0.588835
O       0.024048      1.229247      0.011599
C       0.731317     -0.771026      0.033334
C       1.073602      0.561680      0.714156
O       2.318298      1.121184      0.500691
H      -2.545952      0.392598     -0.434720
H      -2.134868     -1.323417     -0.578434
H      -1.869033     -0.469923      0.953482
H      -0.407423      0.078841     -1.680124
H       2.459995      1.194397     -0.447536
H       1.493601     -1.102225     -0.671082
H       0.467690     -1.592619      0.697595
H       0.922071      0.597288      1.795912
