14
Extracted from Q-Chem output
C      -1.749732     -0.278062     -0.230958
C      -0.305814      0.002639     -0.551808
O       0.131880      1.241953      0.103904
C       0.734288     -0.874722      0.144368
C       1.375625      0.371355      0.774471
O       2.309304      1.000940      0.116692
H      -2.394324      0.504878     -0.632005
H      -2.050576     -1.232617     -0.667911
H      -1.899564     -0.330131      0.849074
H      -0.160170      0.102565     -1.629161
H       1.202583      1.522472     -0.334977
H       1.428773     -1.402088     -0.505566
H       0.299942     -1.562524      0.870215
H       1.341528      0.474850      1.866068
