13
Extracted from Q-Chem output
C      -1.200108      0.851222     -1.355154
C      -1.069483     -0.217239     -0.584586
C       0.184977     -0.668719      0.089327
C       1.378109      0.299713      0.298946
N       1.242542      0.114514      1.767715
C       0.239016     -0.654145      1.597628
H      -0.370686      1.515692     -1.567584
H      -2.150959      1.099011     -1.810214
H      -1.936996     -0.852050     -0.416733
H       0.493488     -1.637432     -0.318478
H       2.343511     -0.031847     -0.085665
H       1.203062      1.334112      0.004378
H      -0.349746     -1.135782      2.376978
