14
Extracted from Q-Chem output
O       2.652107     -0.623055     -0.248336
C       1.740253     -0.198542     -0.903110
C       0.291373     -0.477591     -0.610326
C      -0.261403     -0.515353      0.819175
C      -1.595940     -0.190850      0.128705
N      -0.635035      0.733621     -0.612022
C      -0.061644      1.008685      0.777118
H       0.955585      1.401049      0.774624
H       1.920721      0.414358     -1.811175
H      -0.048970     -1.258220     -1.302029
H      -0.041796     -1.224719      1.617197
H      -2.048796     -0.952241     -0.508349
H      -2.348585      0.348890      0.704217
H      -0.715512      1.624485      1.395382
