19
Extracted from Q-Chem output
C       1.999983      0.448344     -0.591376
C       1.201242     -0.132250      0.569425
C      -0.221747     -0.506979      0.198273
C      -0.472617     -1.408341     -0.816067
C      -1.401265     -0.309399      1.232624
C      -1.243160      0.818873      0.350584
O      -0.834424      1.933099      0.984837
H       1.506121      1.330232     -1.005112
H       2.114268     -0.271110     -1.403800
H       3.000470      0.739600     -0.267288
H       1.167563      0.593909      1.384656
H       1.708084     -1.016599      0.964803
H       0.334277     -1.745476     -1.457134
H      -1.372803     -2.003497     -0.843943
H      -1.753187     -0.186702     -1.748492
H      -1.169703     -0.196793      2.291029
H      -2.185234     -1.021416      1.011297
H      -1.851683      0.430096     -1.186892
H      -0.522182      2.554413      0.321678
