15
Extracted from Q-Chem output
C      -1.056592     -0.010132      1.035031
C      -0.149606     -0.274410     -0.161020
C      -0.913762     -0.264126     -1.475952
N       0.930217      0.717989     -0.229318
C       2.086401      0.732056      0.411994
O       2.160280     -0.361643      1.196941
H      -1.832966     -0.774876      1.105663
H      -1.544527      0.963331      0.941927
H      -0.481551     -0.018426      1.960528
H       0.328331     -1.246838     -0.032653
H      -0.252942     -0.480552     -2.316826
H      -1.382773      0.709732     -1.646708
H      -1.706686     -1.012857     -1.462392
H       0.776521      1.509474     -0.831039
H       3.012217     -0.323409      1.632108
