11
Extracted from Q-Chem output
N       2.710139      0.885864      0.904074
C       1.909452      0.326452      0.198987
C       0.986346     -0.300507     -0.613083
O       0.098548     -1.175062     -0.048908
C      -1.255601     -0.794239     -0.157927
C      -1.513112      0.464549      0.560052
N      -1.659793      1.457696      1.114289
H       0.866257      0.006085     -1.643725
H       1.267899      1.271899      0.425884
H      -1.552467     -0.666125     -1.204448
H      -1.849314     -1.595044      0.281324
