15
Extracted from Q-Chem output
C       1.825126     -0.358778      0.471190
C       0.380308      0.019964      0.659220
C      -0.410054      0.549002     -0.529170
O      -1.615243      2.494155     -1.157555
C      -1.362219      1.652767     -0.336528
C      -0.713361     -0.801164      0.102947
O      -0.369156     -1.951090     -0.592782
H       2.459799      0.528370      0.491123
H       1.974018     -0.871800     -0.477955
H       2.149746     -1.030798      1.267348
H       0.150084      0.499437      1.605622
H       0.087691      0.522776     -1.491116
H      -1.864986      1.668022      0.657154
H      -1.630138     -0.871958      0.683809
H      -1.006595     -2.090314     -1.295798
