15
Extracted from Q-Chem output
C       1.795213     -0.565231      0.391839
C       0.510332      0.176863      0.669543
C       0.021730      1.192636     -0.252925
O      -1.553657      0.712771     -1.651911
C      -1.455334      0.902005     -0.366391
C      -0.894188     -0.470389      0.324665
O      -0.874962     -1.467785     -0.602732
H       2.651055      0.111651      0.418696
H       1.752232     -1.037437     -0.589372
H       1.958527     -1.347521      1.133360
H       0.423952      0.521321      1.703311
H       0.527724      1.535619     -1.154625
H      -2.214901      1.451570      0.199471
H      -1.453451     -0.711514      1.228505
H      -1.181437     -1.013657     -1.424067
