12
Extracted from Q-Chem output
O       0.917182     -1.094383      0.135379
C       1.629670     -0.013174     -0.300445
C       0.992703      1.139176     -0.202112
C      -0.357075      0.878055      0.407177
N      -0.369952     -0.584285      0.428688
C      -1.396582     -1.318843     -0.092050
O      -2.529656     -0.911814     -0.152999
H       2.624414     -0.254885     -0.641434
H       1.376370      2.107449     -0.475974
H      -1.205697      1.224824     -0.187240
H      -0.452621      1.290784      1.415997
H      -1.076055     -2.327992     -0.394339
