12
Extracted from Q-Chem output
O       1.142614     -1.262657     -0.456558
C       1.597772     -0.117554     -0.502095
C       1.007315      1.000341      0.077902
C      -0.478150      0.883438      0.295046
N      -0.521306     -0.404903      0.806707
C      -1.360588     -1.320643      0.153497
O      -2.334400     -0.987356     -0.470320
H       2.452804      0.089214     -1.165901
H       1.543886      1.916196      0.283959
H      -1.123021      1.116780     -0.558168
H      -0.672925      1.587896      1.116033
H      -1.101297     -2.365842      0.360545
