7
Extracted from Q-Chem output
O      -0.981736     -1.039722      1.393027
C      -0.633537     -0.376735      0.467359
C       0.736748     -0.051822      0.147743
C       1.876971      0.207650     -0.102007
C      -2.331934      0.625796     -1.189240
N      -1.558473      0.173022     -0.436944
H       2.894872      0.436363     -0.320853
