15
Extracted from Q-Chem output
C      -2.624477      0.418631      1.098347
C      -1.241816     -0.832055     -0.970785
C      -0.622860     -0.152496     -0.002408
O      -1.218122      0.480580      1.036056
C       0.805452     -0.013978      0.043798
C       1.998560      0.098696      0.077762
C       3.447428      0.235631      0.120526
H      -2.970946     -0.615628      1.191633
H      -3.079031      0.871389      0.211431
H      -2.915501      0.980549      1.982868
H      -0.649203     -1.293325     -1.745693
H      -2.314870     -0.943966     -1.016359
H       3.769818      1.114237     -0.440618
H       3.792973      0.342622      1.149669
H       3.929792     -0.641718     -0.312748
