16
smiles: [C:1](=[C:2]1[N:3]([H:12])[C@:4]1([C:5]([C:6](=[O:7])[H:16])([H:14])[H:15])[H:13])([H:8])[H:9].[H:10][H:11]
C       -1.30136200       0.27350100       1.72268100
C       -0.76996300       0.44802200       0.53387100
N       -0.79363400       1.24641400      -0.60979300
C        0.11814400       0.07088600      -0.54216800
C        1.58614900       0.39120200      -0.52415000
C        2.43358100      -0.70074900       0.06670600
O        2.01444300      -1.75656700       0.45408400
H       -0.94432100      -0.52085100       2.36343600
H       -2.09761400       0.91453500       2.07879500
H       -2.84900900      -1.08972600      -0.61250800
H       -2.99307100      -1.19331800      -1.33570000
H       -1.60632800       1.11022600      -1.19851000
H       -0.16180200      -0.81394000      -1.10688400
H        1.76441800       1.30928300       0.04468700
H        1.96064200       0.59067400      -1.53562700
H        3.51815300      -0.47103200       0.12463500
