16
Extracted from Q-Chem output
C      -1.369190      0.024602      1.434785
C      -1.106490      0.183584      0.067237
N      -0.877245      1.298052     -0.784040
C       0.049867      0.147981     -0.830047
C       1.427361      0.383898     -0.281923
C       2.127156     -0.882388      0.126322
O       1.649907     -1.980351      0.040143
H      -0.787306     -0.688872      1.999220
H      -2.067930      0.684846      1.926869
H      -2.068674     -0.642578      0.254455
H      -2.098321     -0.615809     -0.838926
H      -1.492433      1.315185     -1.587578
H      -0.020092     -0.520736     -1.679018
H       1.385521      1.044475      0.588842
H       2.055858      0.900607     -1.016158
H       3.150200     -0.743204      0.532579
