11
Extracted from Q-Chem output
C       2.219967     -0.100760     -1.063935
C       1.099248      0.079533     -0.692545
C       0.515398      1.184600      2.043810
C      -0.359420      0.870192      1.145077
C      -0.271360      0.292580     -0.242949
C      -1.131420     -0.977259     -0.313683
O      -0.795512     -1.999095     -0.823275
H       3.219983     -0.265527     -1.389975
H      -1.338854      1.112828      1.582013
H      -0.761963      1.000504     -0.925492
H      -2.133687     -0.855194      0.146963
