13
Extracted from Q-Chem output
C      -1.687275      0.021854     -0.087889
C      -0.295951     -0.318199     -0.528551
O      -0.001203     -1.535605     -0.809279
C       0.786917      0.550439     -0.352907
O       0.668125      1.823380      0.149304
C       1.641801     -0.868619      0.820064
O       2.265515     -0.598487      1.743383
H      -1.818506     -0.201543      0.976651
H      -1.918865      1.074035     -0.256153
H      -2.392352     -0.599334     -0.638028
H       1.624487      0.466143     -1.036659
H       0.120317      1.817411      0.936354
H       0.958964     -1.665297     -0.010549
