16
Extracted from Q-Chem output
C      -1.723415     -0.313881     -0.340861
C      -0.451382     -0.947401      0.018800
O       0.706031      0.510555     -1.506495
C       0.256078     -0.676226      1.259755
N       1.407440     -0.047072      0.615754
C       1.108057      1.176508     -0.181746
O       0.207541      1.917208      0.301297
H      -2.477185     -0.784454      0.309846
H      -1.995314     -0.462927     -1.381773
H      -1.677024      0.746966     -0.083891
H      -0.063494     -1.748998     -0.599855
H       0.245113      1.210850     -1.981163
H      -0.243291      0.044215      1.902580
H       0.574263     -1.563357      1.805366
H       2.027017     -0.693007      0.141490
H       2.107016      1.607981     -0.409980
