10
Extracted from Q-Chem output
O       2.091962     -0.020758      0.019039
C       0.763649     -0.139163     -0.021440
N       0.061491     -1.206612      0.042812
C      -1.264128     -0.789570     -0.027334
C      -1.510630      0.542016     -0.228426
N      -0.007748      1.001066     -0.119801
H       2.458091     -0.909097      0.087823
H      -2.043433     -1.533656      0.052991
H      -0.747919      1.218626      0.732168
H       0.314537      1.864279     -0.531384
