18
Extracted from Q-Chem output
C       2.782045      0.415387     -0.743297
C       1.742772     -0.097103      0.242242
C       0.624540     -0.867844     -0.298690
C      -0.547673     -0.866234      0.600203
C      -1.486765      0.212461      0.006945
C      -2.790593      0.312077      0.788469
H       3.060307     -0.372674     -1.442992
H       2.375420      1.245592     -1.323241
H       3.678990      0.772040     -0.233361
H       1.473964      0.655121      1.003240
H       2.169387     -0.943411      0.826901
H      -0.979230      1.181668      0.012956
H      -0.335276     -0.602396      1.649168
H      -1.078121     -1.821214      0.567205
H      -1.689959     -0.027162     -1.038795
H      -3.331196     -0.636400      0.770056
H      -3.441629      1.076706      0.361001
H      -2.607995      0.572410      1.833158
