18
Extracted from Q-Chem output
C       2.019731      0.897475     -0.375820
C       1.365195     -0.231982      0.405969
C       0.381494     -1.052798     -0.386637
C      -0.741238     -1.563983      0.431525
C      -1.346233     -0.306558     -0.181381
C      -1.714355      0.838667      0.732451
H       2.413614      0.525419     -1.322523
H       1.292465      1.681972     -0.604344
H       2.834577      1.357904      0.185878
H       0.996244      0.132387      1.377644
H       2.121564     -0.989420      0.652141
H      -0.491217     -0.011536     -0.950313
H      -0.650530     -1.496894      1.518532
H      -1.204777     -2.495336      0.119373
H      -2.101176     -0.552968     -0.924967
H      -2.560356      0.562211      1.364486
H      -1.993267      1.724479      0.159870
H      -0.888879      1.107682      1.392277
