15
Extracted from Q-Chem output
C      -1.266638     -1.081135      0.543583
N      -0.320788     -0.498527     -0.435338
C       1.049119     -1.011134     -0.318560
C       1.830935      0.041907      0.003830
C       1.113035      1.260015      0.073985
C      -0.226008      1.025567     -0.244229
N      -1.343256      1.617680     -0.437000
H      -2.206974     -0.538039      0.463553
H      -1.398515     -2.141544      0.333568
H      -0.834996     -0.947638      1.533213
H       1.225071     -2.068945     -0.399362
H       2.893341     -0.050163      0.186419
H       1.522624      2.232241      0.289229
H      -1.249670      2.617606     -0.307258
H      -0.698632     -0.626343     -1.371220
