15
Extracted from Q-Chem output
C      -1.162940     -1.109486      0.608249
N      -0.327341     -0.451791     -0.417516
C       1.021175     -0.984056     -0.411772
C       1.827493     -0.021287      0.072937
C       1.110010      1.218001      0.294035
C      -0.155586      0.991283     -0.164311
N      -1.243917      1.464190     -0.754270
H      -2.117919     -0.587487      0.661142
H      -1.328725     -2.145180      0.313037
H      -0.657975     -1.079885      1.574904
H       1.193726     -2.030825     -0.597901
H       2.888387     -0.151489      0.239345
H       1.550109      2.176279      0.511634
H      -1.418194      2.453049     -0.815318
H      -1.133617      0.151074     -1.200895
