13
smiles: [C:1]([C:2](=[O:3])[C:4](=[O:5])[N:6]([H:12])[H:13])([H:7])([H:8])[H:10].[H:9][H:11]
C       -1.29589800       0.58567600       0.33789500
C        0.01593600       0.00813100      -0.08428400
O        0.14721700      -1.03884400      -0.66528400
C        1.26627300       0.84839800       0.27117500
O        1.16818500       1.90668500       0.85239200
N        2.41123900       0.27276700      -0.13134600
H       -1.42663200       1.56727600      -0.12106800
H       -2.10293400      -0.08448200       0.05300800
H       -2.62126000      -2.66689900      -1.80597300
H       -1.29282000       0.75302900       1.41628500
H       -1.99071100      -2.37194400      -1.54177100
H        2.37214500      -0.61052300      -0.60940300
H        3.28757700       0.72903500       0.04369800
