10
Extracted from Q-Chem output
O       1.059207      0.798708     -0.339027
C       2.018863      0.166206      0.166066
C       0.593665     -0.581371     -0.141769
O      -1.171591     -0.241002     -0.845390
C      -1.873708      0.325000      0.064803
O      -1.488605      0.651713      1.181653
H       2.936278      0.716205      0.417420
H       0.732441     -1.272559     -0.953655
H       0.138662     -0.814487      0.805585
H      -2.924348      0.513359     -0.232884
