10
Extracted from Q-Chem output
N       1.922399     -0.046811     -0.442223
C       0.593709      0.070283     -0.154574
N      -0.109516      1.148901     -0.079151
C      -1.395376      0.682401      0.164767
C      -1.387006     -0.656233      0.229095
O      -0.089248     -1.070645      0.020074
H       2.437826      0.809016     -0.333121
H       2.377618     -0.868450     -0.084542
H      -2.229882      1.354720      0.279625
H      -2.120524     -1.423182      0.400050
