10
Extracted from Q-Chem output
N       1.739735     -0.091054     -0.260642
C       0.598807      0.179342     -0.852376
N      -0.178121      1.249542     -0.466950
C      -1.041500      0.613400      0.286242
C      -0.772244     -0.795019      0.278528
O      -0.101977     -0.974809     -0.948461
H       2.179745      0.767440      0.061290
H       0.826130     -0.597987      0.715104
H      -1.762326      1.135596      0.901308
H      -1.475945     -1.570173      0.550797
