15
Extracted from Q-Chem output
C       1.716626      0.525341      1.284300
C       0.804912      0.681002      0.095893
O       0.733959     -0.526074     -0.707764
C      -0.656005     -0.585042     -0.560467
C      -0.712632      0.633977      0.334212
O      -1.255071     -1.801554     -0.284789
C      -1.551176     -1.166249     -1.543091
H       1.708269      1.436841      1.886470
H       1.396223     -0.311229      1.907726
H       2.740777      0.338947      0.957597
H       1.119041      1.518352     -0.533299
H      -1.004591      0.400800      1.357320
H      -1.290104      1.475340     -0.042103
H      -2.569955     -0.804730     -1.650967
H      -1.120628     -1.656284     -2.410998
