15
Extracted from Q-Chem output
C       1.597594     -0.258783      0.598694
C       0.836799      0.961622      0.181189
O       0.920147      1.495384     -1.095329
C      -0.264187      0.657751     -0.962805
C      -1.122968      1.360026     -0.146477
O      -1.579617     -1.725744      0.665242
C      -1.262594     -1.857851     -0.489184
H       0.992293     -0.860464      1.278828
H       1.845662     -0.853493     -0.277107
H       2.512144      0.039915      1.117573
H       0.787873      1.741663      0.942195
H      -1.917705      0.815478      0.359396
H      -1.093953      2.444639     -0.030258
H      -1.956142     -1.634238     -1.317286
H      -0.282349     -2.264742     -0.788952
