16
Extracted from Q-Chem output
O       2.906856     -0.543609      0.893747
C       1.575677     -0.413848      0.648886
C       0.919150     -0.901523     -0.394338
C      -0.559561     -0.784257     -0.645388
C      -1.327442      0.204767      0.229679
C      -1.021772      1.668018     -0.072576
H       3.308314     -1.062474      0.191900
H       0.031943      1.905918      0.079900
H       1.099069      0.157143      1.436487
H       1.483517     -1.464643     -1.136584
H      -1.008942     -1.777953     -0.536538
H      -0.713461     -0.512554     -1.696289
H      -2.396134      0.029067      0.079198
H      -1.139926     -0.009849      1.286637
H      -1.610470      2.331594      0.563448
H      -1.262684      1.904882     -1.111918
