14
smiles: [C:6](=[O:7])([H:13])[H:14].[N:1]([C:2](=[O:3])[C:5](=[C:4]([H:10])[H:11])[H:12])([H:8])[H:9]
N        1.26825800       0.75388200       1.80594500
C        0.45368400       0.53733000       0.73589300
O       -0.07844500       1.44178100       0.12787800
C        1.14582400      -1.85683000       0.49519700
C        0.26605700      -0.88357000       0.31442200
C       -2.04771500       0.98859000      -1.71819300
O       -2.58631400      -0.05728200      -1.50384400
H        1.34532300       1.69975600       2.13609600
H        1.49786300       0.01009900       2.43757800
H        0.96228200      -2.85512500       0.11750200
H        2.09387700      -1.69470600       0.99650900
H       -0.65074800      -1.05018300      -0.23909000
H       -1.14885500       1.06324600      -2.35981900
H       -2.41885800       1.93757700      -1.28590100
