14
Extracted from Q-Chem output
N       1.094938      1.057154      1.019568
C       0.086109      0.222550      1.355546
O      -0.482271      0.151613      2.402769
C       0.344638     -1.434825      0.307607
C      -0.656589     -0.520645      0.012041
C      -0.664350      0.393401     -1.285599
O      -1.394450     -0.373732     -2.029270
H       1.284220      1.801342      1.670024
H       1.304919      1.216014      0.047798
H       0.141261     -2.350755      0.850865
H       1.355201     -1.286620     -0.051358
H      -1.658437     -0.758197      0.349763
H       0.409354      0.523713     -1.581564
H      -1.062307      1.393555     -1.008014
