11
Extracted from Q-Chem output
N       1.770613     -0.303962     -0.324781
C       0.651216      0.447591     -0.681982
C      -1.535069     -0.521978      0.700696
O      -1.927736      0.262223     -0.457519
C      -0.622879      0.317855     -0.034476
O       0.088905      1.448794      0.269543
H       1.728921     -0.655555      0.620055
H       2.640981      0.181952     -0.481172
H       0.675133      0.834198     -1.695195
H      -1.547647     -1.597083      0.550781
H      -1.934495     -0.159025      1.642310
