16
Extracted from Q-Chem output
C      -1.494330      0.471429      1.809623
O      -0.795370     -0.449039      1.000045
C       0.324477      0.453642     -1.643498
C       1.277028     -0.722444     -1.486483
N       1.135214     -1.078376     -0.072821
C       0.455509      0.015322      0.578818
O       0.364186      1.054168     -0.355324
H      -1.741866      1.380493      1.254688
H      -2.412070     -0.017570      2.131014
H      -0.906446      0.743937      2.694308
H       0.642562      1.198030     -2.371799
H      -0.693336      0.123966     -1.879757
H       2.305924     -0.420325     -1.697597
H       1.027777     -1.563384     -2.133725
H       0.588453     -1.917485      0.054944
H       0.999486      0.421776      1.440588
