10
smiles: [C-:5]#[O+:6].[N:1]([C+:2]([O:3][H:10])[N-:4][H:9])([H:7])[H:8]
N        1.96169300      -0.12975000       0.01858700
C        0.59470600      -0.03976300       0.01959400
O        0.09247900      -0.55275100       1.15944000
N       -0.18751300       0.40324800      -0.87372400
C       -2.93848300      -0.20871700       0.35938500
O       -3.76547200       0.08237600      -0.34308800
H        2.40213600      -0.28040500       0.90873000
H        2.46062200       0.45517000      -0.62507500
H        0.30649500       0.75144700      -1.68555300
H       -0.86503000      -0.49618900       1.07003200
