10
Extracted from Q-Chem output
N       1.768026     -0.056840      0.029906
C       0.436288     -0.098547      0.222221
O       0.010739     -0.612597      1.322187
N      -0.458343      0.335649     -0.637780
C      -2.019168     -0.048558      0.057991
O      -2.944798      0.233212     -0.584230
H       2.363912     -0.354346      0.780442
H       2.164477      0.414871     -0.759881
H      -0.173868      0.708342     -1.530242
H      -1.123966     -0.526210      1.100710
