15
smiles: [C:1]([C@@:2]1([C:3][H:11])[C:5]([H:13])([H:14])[N:6]1[H:15])([H:7])([H:8])[H:9].[O:4]([H:10])[H:12]
C       -1.46964200      -1.44976000       0.32402700
C       -0.67941200      -0.23656600       0.00795800
C       -0.16024000       0.35684500      -1.07308600
O        2.15153300      -0.04356500      -0.42239600
C        0.38143500       1.45772100      -0.19657600
N       -0.14334700       0.67557700       0.96347200
H       -2.40357100      -1.18808400       0.82852500
H       -1.71289500      -1.99625600      -0.58662800
H       -0.90637100      -2.10609200       0.99069400
H        2.72431200      -0.77718300      -0.19565600
H       -0.05650300       0.09746000      -2.11463600
H        1.81102600       0.28147500       0.41198400
H       -0.09772400       2.43291500      -0.30857100
H        1.46572500       1.58022200      -0.15935200
H       -0.81744500       1.15973500       1.54541400
