15
Extracted from Q-Chem output
C      -1.297275     -0.954334      0.084147
C      -0.114018     -0.026721      0.007736
C       1.083583     -0.588892     -0.737515
O       2.219179      0.224441     -0.616543
C      -0.324470      1.432379      0.043180
N       0.274199      0.738905      1.189921
H      -2.140604     -0.481883      0.591457
H      -1.628306     -1.240182     -0.916924
H      -1.039854     -1.868791      0.624607
H       1.281939     -1.601925     -0.355442
H       0.850384     -0.678564     -1.802134
H       2.218499      0.539541      0.297264
H      -1.342611      1.793655      0.139289
H       0.351143      2.088407     -0.492008
H      -0.391787      0.623964      1.942967
