15
Extracted from Q-Chem output
C      -1.438994     -0.916306      0.114616
C      -0.194057     -0.082098     -0.053201
C       0.863882     -0.795557     -0.851903
O       2.295775      0.042914     -0.451408
C      -0.312644      1.395043      0.001596
N       0.329153      0.654596      1.097970
H      -2.212760     -0.370440      0.659816
H      -1.847125     -1.189505     -0.860807
H      -1.205440     -1.839287      0.646871
H       2.210508     -0.992679     -0.324863
H       0.780559     -0.561421     -1.915321
H       1.982829      0.416672      0.412429
H      -1.286996      1.832184      0.190709
H       0.359775      2.016378     -0.579197
H      -0.259130      0.582647      1.917213
