14
Extracted from Q-Chem output
C       1.509625     -0.347976     -0.468553
C       0.032908      0.016089     -0.494834
C      -0.886573     -0.926634      0.293982
C      -1.993368     -0.085583      0.875046
O      -1.612992      1.148989      0.770821
C      -0.289919      1.344694      0.165538
H       1.675667     -1.328076     -0.918724
H       1.882763     -0.384493      0.558309
H       2.114149      0.374735     -1.020506
H      -1.285912     -1.765917     -0.275532
H      -0.380247     -1.362661      1.167335
H      -0.310202      0.047156     -1.532924
H       0.396180      1.593009      0.978884
H      -0.371520      2.194731     -0.509128
