14
Extracted from Q-Chem output
C       1.603996     -0.060235     -0.417290
C       0.903905      0.088155      0.783224
C      -0.064315     -0.784806      1.249078
C      -1.093252      0.036288      0.526345
N      -1.191372     -0.510045     -0.809693
C      -0.741761      1.354212      0.568372
O       0.496660      1.431346      1.149927
H       0.054466     -0.392825     -1.039021
H       2.039234     -1.040531     -0.591975
H       2.164230      0.780884     -0.811827
H       0.023629     -1.817446      0.926214
H      -1.569168     -1.452109     -0.852423
H      -1.671856      0.082451     -1.477725
H      -1.180538      2.242076      0.138390
