16
Extracted from Q-Chem output
C       2.313887      0.118121      0.317358
O       1.234039     -0.802862      0.362504
C       0.077260     -0.317774     -0.037893
C      -0.552023      0.969076      0.043280
C      -1.932632      0.343753      0.181814
C      -1.234758     -1.046123      0.087621
H       2.090584      1.002246      0.918567
H       2.489337      0.401972     -0.726007
H       3.182612     -0.397684      0.716616
H       0.427423     -0.422377     -1.737977
H      -0.146703      1.947673      0.251524
H      -0.121254      0.478793     -1.188342
H      -2.634083      0.549635     -0.629924
H      -2.445084      0.510432      1.131523
H      -1.248830     -1.605252      1.023132
H      -1.501784     -1.698371     -0.739592
