15
Extracted from Q-Chem output
C      -2.631399     -0.707631     -0.274869
N      -1.466955      0.104893     -0.027202
C      -0.331264     -0.433459     -0.145989
C       0.937957      0.274606      0.047241
C       2.229800     -0.502576      0.048270
C       0.921151      1.579268      0.218748
N       0.923712      2.791230      0.253296
H      -3.206326     -0.274043     -1.096407
H      -3.275610     -0.696284      0.607273
H      -2.391903     -1.751062     -0.524751
H      -0.224302     -1.497579     -0.410053
H       3.089546      0.158648      0.146225
H       2.342286     -1.060486     -0.884563
H       2.259965     -1.219196      0.872694
H       0.823783      3.225284      1.166390
