15
Extracted from Q-Chem output
C      -2.606403     -0.613212     -0.262216
N      -1.429053      0.175779     -0.012578
C      -0.292290     -0.394346     -0.066008
C       0.938791      0.343335     -0.006208
C       2.267145     -0.334560      0.107717
C       0.770850      1.753344      0.112407
N       0.094738      2.737745     -0.075139
H      -3.147270     -0.174130     -1.103636
H      -3.269314     -0.553939      0.604056
H      -2.397512     -1.667953     -0.484808
H      -0.192186     -1.477481     -0.222161
H       3.084958      0.383190      0.044223
H       2.379987     -1.034516     -0.724389
H       2.384144     -0.911484      1.029393
H       1.413417      1.768228      1.059344
