11
Extracted from Q-Chem output
N       1.272158      0.453249     -0.013141
C       0.042855     -0.178811     -0.622767
C      -0.904546     -0.796069      0.377433
O      -1.010389     -0.043736      1.553379
C       0.386919      1.241296     -0.692728
O       0.222619      2.344445     -1.099993
H      -0.118330      0.175409      1.841628
H       2.208042      0.278178     -0.353658
H       0.172302     -0.738982     -1.547277
H      -1.900302     -0.850710     -0.067157
H      -0.574663     -1.823457      0.588112
