15
Extracted from Q-Chem output
C      -1.281696     -1.561986      0.163130
N      -0.197112     -0.830752      0.103771
C       1.081520     -1.159132     -0.174261
C       1.876829      0.022224     -0.189785
C       1.142062      1.106869      0.113858
C      -0.266199      0.662102      0.389351
N      -1.338188      1.265966     -0.350320
H      -1.211102     -2.620924     -0.030025
H      -2.220948     -1.067064      0.342880
H      -0.503803      0.734416      1.453618
H       1.351047     -2.171653     -0.422327
H       2.933835      0.017193     -0.418516
H       1.460725      2.131925      0.212806
H      -1.755866      2.032727      0.153067
H      -1.021379      1.591090     -1.253096
