12
Extracted from Q-Chem output
C       2.125384     -0.425845      0.071585
C       0.712530     -0.001536      0.126833
C      -0.159494      0.788274      0.562977
C      -1.517433      0.972947      0.447045
C      -1.695092     -0.573331     -0.747205
O      -2.665130     -0.987408     -1.195471
H       2.747870      0.218081      0.692221
H       2.500487     -0.386516     -0.952295
H       2.233056     -1.453224      0.422957
H      -1.884028      1.812058     -0.140143
H      -2.155201      0.726689      1.293195
H      -0.257754     -0.689457     -0.580630
