12
smiles: [H:10][H:12].[O:1]=[C:2]1[C:3]([H:7])([H:8])[C:4]([H:9])=[C:5]([H:11])[O:6]1
O        2.66672100      -0.08602300       0.53496900
C        1.57399200       0.20943200       0.17632600
C        0.53577700      -0.61402600      -0.56576400
C       -0.59754500       0.35158300      -0.70421300
C       -0.22753500       1.48570200      -0.13353500
O        1.04316800       1.45796700       0.40240000
H        0.95608000      -0.95564800      -1.51411900
H        0.29782300      -1.50404100       0.02103500
H       -1.54573800       0.16345000      -1.18085800
H       -1.93611300      -1.14017100       1.59173900
H       -0.74475500       2.42513300      -0.01677800
H       -2.07218800      -1.85287200       1.75911100
