15
Extracted from Q-Chem output
O       1.416065     -2.163885      2.038153
C       0.951717     -1.368414      1.258166
C      -2.052537     -0.428530     -0.994949
C      -1.255870      0.303021     -0.232295
C      -0.023815      1.005932     -0.715023
C       1.264735      0.815574      0.036566
C       1.676051     -0.147302      0.863688
H      -1.829971     -0.608262     -2.041676
H      -2.955252     -0.877888     -0.600267
H      -1.512989      0.459977      0.812934
H      -0.034462     -1.545552      0.798612
H       0.157669      0.758719     -1.767317
H      -0.227162      2.083297     -0.707836
H       1.981166      1.612051     -0.151003
H       2.665531     -0.070392      1.303677
