15
Extracted from Q-Chem output
O       0.066931     -2.097923      1.491675
C       0.147622     -1.057023      0.830157
C      -0.922876     -0.999851     -0.590591
C      -1.123369      0.275176     -0.033148
C      -0.160117      1.366814     -0.380083
C       1.250825      0.809335     -0.283938
C       1.394527     -0.368370      0.290760
H      -0.307494     -1.104497     -1.473732
H      -1.684301     -1.753061     -0.441274
H      -2.026196      0.504353      0.521129
H      -0.330996     -0.079107      1.380085
H      -0.354504      1.696096     -1.405877
H      -0.286977      2.236972      0.269708
H       2.073700      1.387866     -0.679759
H       2.332869     -0.881262      0.449164
