13
smiles: [C-:4]#[O+:5].[C:1](/[C:2]([O:3][H:11])=[C:6](/[O:7][H:12])[H:13])([H:8])([H:9])[H:10]
C       -0.92010600      -1.56010700      -0.50325500
C       -0.01482800      -0.66823600       0.26848700
O       -0.33293100      -0.58005600       1.58595400
C       -0.25195100       2.83033300      -0.25817500
O       -1.34884800       2.99831300      -0.43327400
C        1.02567700      -0.01620000      -0.24068800
O        1.84069500       0.71000100       0.61251500
H       -1.95088900      -1.20791000      -0.42656900
H       -0.88610100      -2.57491100      -0.10124100
H       -0.63379800      -1.58853400      -1.55381900
H        0.31623800       0.00185600       1.99851900
H        2.01745600       1.57128600       0.23136800
H        1.31496800      -0.09064400      -1.28103000
