13
Extracted from Q-Chem output
C      -0.970777     -1.246393     -0.517481
C       0.033535     -0.424086      0.206579
O      -0.222859     -0.266972      1.538996
C      -0.206716      1.721144     -0.071708
O      -1.158088      2.246641     -0.415826
C       1.286646     -0.063246     -0.257149
O       1.981558      0.752094      0.452242
H      -1.952424     -0.768888     -0.483878
H      -1.061928     -2.228439     -0.049594
H      -0.682521     -1.372292     -1.560807
H       0.597333      0.061544      1.936827
H       0.967354      1.707975      0.410546
H       1.564468     -0.293890     -1.289956
