11
Extracted from Q-Chem output
C      -1.094256      0.299202      0.129064
C      -0.285741     -0.835122     -0.532642
O       1.137051     -0.595738     -0.566690
C       1.534886      0.462930      0.150058
N       0.842716      0.890965      1.131174
C      -0.343106      0.417371      1.437248
H      -1.040388      1.201035     -0.487566
H      -2.129845     -0.018803      0.235737
H      -0.595072     -0.935725     -1.571590
H       2.497784      0.865380     -0.135606
H      -0.435722     -1.785456     -0.019028
