11
Extracted from Q-Chem output
C      -1.160706      0.387035     -0.012994
C      -0.288539     -0.664559     -0.594011
O       1.010212     -0.254605     -0.932652
C       1.516403      0.443450      0.118827
N       0.883145      0.489664      1.205345
C      -0.393657     -0.126228      1.216100
H      -0.945246      1.404663     -0.323640
H      -2.219756      0.152999     -0.016920
H      -0.659349     -1.443648     -1.250087
H       2.486181      0.885836     -0.071341
H      -0.172715     -1.290484      0.528199
