19
smiles: [C:1](=[C:2]([H:11])[H:12])([H:8])[H:10].[C:3](\[O:4][H:14])(=[C:5](/[C:6]([H:16])([H:17])[H:18])[O:7][H:19])[H:13].[H:9][H:15]
C        2.33831200       0.42399500       0.97422600
C        1.70144900      -0.17610500       1.96508300
C       -0.86394600      -1.75136600      -0.57748100
O       -1.30844100      -2.36213300       0.55132500
C       -0.66955200      -0.44266500      -0.68696400
C       -0.19070100       0.26493500      -1.90615200
O       -0.99656100       0.33317200       0.41184600
H        2.41174400      -0.02588500      -0.00936100
H       -2.39816300       3.37994100      -0.53792100
H        2.81274600       1.39009800       1.10436800
H        1.22703600      -1.14221400       1.83491000
H        1.62802900       0.27375000       2.94868100
H       -0.69363100      -2.43177600      -1.39929800
H       -1.42727400      -1.68035800       1.22144000
H       -2.21765100       2.67518800      -0.37920400
H       -0.93417400       0.98488800      -2.25918700
H        0.73805900       0.81259800      -1.71102700
H        0.00837900      -0.44607900      -2.70721000
H       -0.41916900       1.09742000       0.45039700
