19
Extracted from Q-Chem output
C       1.665593      1.090662      1.135166
C       1.716441     -0.275132      1.031778
C      -0.267492     -1.160953      0.144792
O      -0.814394     -1.678223      1.276480
C      -0.914599     -0.144726     -0.535729
C      -0.745472      0.007786     -2.022668
O      -2.200421      0.112940     -0.032143
H       2.306147      1.711256      0.517969
H       0.409591      1.526862      0.353974
H       1.326506      1.551381      2.056800
H       2.351140     -0.734037      0.283708
H       1.413978     -0.904286      1.856653
H       0.407886     -1.831311     -0.363131
H      -1.635198     -1.194140      1.432468
H      -0.228287      1.096886     -0.085655
H      -1.417508     -0.666184     -2.559922
H      -0.957252      1.029672     -2.345421
H       0.281503     -0.226057     -2.307984
H      -2.380094      1.054127     -0.070749
