13
Extracted from Q-Chem output
C      -2.225859      0.451969      0.042280
O      -1.329434     -0.646690      0.164002
C      -0.036009     -0.370915      0.081106
N       0.422383      0.845344     -0.135691
N       1.768521      0.646094     -0.155371
C       2.211115     -0.716564      0.140394
C       0.989613     -1.345365      0.188690
H      -3.223867      0.033330      0.147368
H      -2.039724      1.189467      0.824614
H      -2.117953      0.931762     -0.931870
H       2.354484      1.443588      0.045206
H       2.370676      0.009124     -0.995590
H       0.825209     -2.405293      0.297866
