14
smiles: [C:3](=[C:4]=[N:5][H:8])([H:9])[H:10].[O:1]=[C:2]1[C:6]([H:11])([H:12])[C:7]1([H:13])[H:14]
O       -0.65539200       2.05634600      -0.12507800
C       -1.23524900       1.01839100      -0.07173300
C        2.52031400      -1.19170500      -0.13596500
C        2.30811800       0.06622000       0.13858400
N        2.21049900       1.24488100       0.42793300
C       -2.49864200       0.29604200      -0.23163700
C       -1.17910600      -0.41899300       0.20071400
H        1.30145700       1.66695500       0.26365500
H        2.33728800      -1.94710600       0.61417500
H        2.87009900      -1.48115000      -1.11610500
H       -3.26842300       0.42579700       0.52011600
H       -2.86599600       0.10710300      -1.23357900
H       -0.69880700      -1.06596800      -0.52399500
H       -1.10232400      -0.75042300       1.22970900
