14
Extracted from Q-Chem output
O      -0.062918      1.609493      0.563454
C      -0.393263      0.453372      0.222345
C       1.341945     -0.687943     -0.465002
C       2.097166      0.399757     -0.216401
N       2.379246      1.502738      0.115213
C      -1.491650     -0.079068     -0.607836
C      -1.247577     -0.577112      0.844758
H       1.335330      1.855951      0.412935
H       1.415333     -1.519750      0.223673
H       1.123101     -0.920941     -1.499274
H      -2.323912      0.593647     -0.778256
H      -1.317144     -0.794375     -1.399295
H      -0.921953     -1.601916      0.956203
H      -1.923116     -0.229579      1.617461
