15
Extracted from Q-Chem output
C      -1.300628     -1.247609      0.396950
N      -0.054831     -0.536935      0.204871
C       1.219871     -1.072576      0.353635
C       2.222770     -0.159582      0.107087
C       1.400986      1.030197     -0.330893
C       0.031350      0.732187     -0.199405
N      -1.096339      1.491686     -0.473100
H      -1.955732     -1.094072     -0.461647
H      -1.086732     -2.308861      0.497715
H      -1.809079     -0.907981      1.302077
H       1.294111     -2.101765      0.676032
H       1.973217      0.295113     -1.138630
H       1.798506      2.022628     -0.492313
H      -1.825509      1.446312      0.222622
H      -0.877172      2.447069     -0.701938
