14
Extracted from Q-Chem output
C       2.539094      0.079158     -1.040278
C       1.519142      0.130268     -0.414250
C       0.261970      0.187211      0.335237
C      -0.926982      0.425658     -0.596173
C      -2.104480      1.034999     -0.058256
C       0.033047     -1.091790      1.145038
H       3.450614      0.039172     -1.588256
H       0.304875      1.035324      1.024176
H      -0.818430      1.442015     -1.104904
H      -0.983837     -0.306427     -1.411811
H      -0.892120     -1.001245      1.716811
H      -2.888563      0.947673     -0.832074
H      -0.045955     -1.958278      0.485118
H       0.856711     -1.267532      1.836455
