14
Extracted from Q-Chem output
C       2.625040     -0.142922     -1.151659
C       1.619492      0.097964     -0.547089
C       0.387824      0.371081      0.180265
C      -0.847750      0.716788     -0.661665
C      -1.919829      0.398099      0.371820
C      -0.184170     -0.813113      0.958266
H       3.520484     -0.349862     -1.688489
H       0.560586      1.187169      0.886525
H      -0.883718      1.765592     -0.962581
H      -0.858623      0.094173     -1.562493
H      -1.205418     -0.358697      1.360983
H      -2.561109     -0.422634      0.013386
H      -0.333622     -1.696236      0.342521
H       0.317945     -1.070251      1.891758
