14
smiles: [C-:5]#[O+:6].[C:1]([C:2]([C:3]([H:11])([H:12])[H:13])([O:4][H:14])[H:10])([H:7])([H:8])[H:9]
C       -0.52269200       1.66416800       0.22348800
C       -0.04541400       0.24313700      -0.03337900
C       -1.17256000      -0.76607000       0.04433700
O        0.92141900      -0.15515200       0.93034400
C        2.72028500      -1.68213800      -1.02846100
O        2.19829400      -2.67540300      -1.08406800
H       -1.26602800       1.96533400      -0.51755100
H       -0.97157400       1.73660000       1.21655500
H        0.30681200       2.37426500       0.16854500
H        0.40303900       0.19486300      -1.03631000
H       -0.79262700      -1.77394200      -0.12502200
H       -1.93585100      -0.55090900      -0.70539400
H       -1.63624600      -0.73613600       1.03263700
H        1.64053300       0.47888400       0.92406300
