14
Extracted from Q-Chem output
C      -0.421349      1.581120      0.167020
C      -0.081672      0.134085     -0.150996
C      -1.266139     -0.797290      0.053089
O       0.990764     -0.288774      0.673352
C       2.329882     -1.205057     -0.148317
O       2.100795     -2.060561     -0.869373
H      -1.238126      1.937126     -0.464830
H      -0.725147      1.673147      1.211864
H       0.444342      2.225427      0.005439
H       0.226251      0.069415     -1.208420
H      -0.992129     -1.824862     -0.188738
H      -2.104972     -0.505063     -0.582816
H      -1.591868     -0.765920      1.095064
H       2.329369     -0.172795      0.407663
