14
Extracted from Q-Chem output
C      -1.333344     -1.100625     -0.127901
C      -0.759310      0.158270     -0.776011
C       0.460757      0.690711     -0.107109
O       0.193116      1.128769      1.396574
C       1.731505      0.075215     -0.061423
O       2.420545      0.081824      0.965364
H      -2.233284     -1.432231     -0.648397
H      -1.597903     -0.912631      0.913647
H      -0.609436     -1.917974     -0.148063
H      -1.525702      0.933985     -0.839435
H      -0.463198     -0.048678     -1.809995
H       0.479512      1.843836      0.583937
H       1.067963      0.802893      1.764451
H       2.103251     -0.378247     -0.993163
