13
smiles: [C-:4]#[O+:5].[O:1]([C:2]([C:3](=[C:6]=[C:7]([H:12])[H:13])[H:11])([H:9])[H:10])[H:8]
O       -2.33974100      -0.32415600       0.00271300
C       -1.17246300      -1.11692100       0.10177800
C       -0.11649200      -0.69456900      -0.88408900
C        0.26009000       2.79350200       1.14951800
O       -0.79329900       2.40323700       1.16057400
C        1.07294900      -0.29895500      -0.53384800
C        2.25962600       0.08426600      -0.16670300
H       -2.09154600       0.59052800       0.15265100
H       -0.75749600      -1.09939500       1.11554300
H       -1.49347100      -2.13831600      -0.11191000
H       -0.38655600      -0.71175400      -1.93640100
H        2.47067600       1.12580500       0.04611600
H        3.07050200      -0.62780300      -0.06679100
