13
Extracted from Q-Chem output
O      -2.381111     -0.254618      0.088850
C      -1.144337     -0.921080      0.164478
C      -0.072829     -0.231316     -0.666598
C       0.303350      1.454717      0.260698
O      -0.487269      2.085011      0.808274
C       1.252454     -0.591498     -0.569390
C       2.323083     -0.102182     -0.142063
H      -2.303509      0.596944      0.524863
H      -0.798300     -1.029128      1.200506
H      -1.317531     -1.924767     -0.226811
H      -0.433429      0.067031     -1.651152
H       1.672281      1.079846      0.234182
H       3.379315     -0.240822     -0.015196
