14
Extracted from Q-Chem output
C      -1.566150     -0.566659      0.112403
C      -0.013399     -1.053386     -0.923144
C      -0.286402      0.863206      0.107496
N       1.148862      0.853014      0.199427
C       1.887906     -0.292824      0.172726
O       3.039715     -0.421604      0.451401
O       1.074579     -1.342470     -0.184978
H      -1.436103     -1.380398      0.819298
H      -2.178126     -0.878596     -0.725958
H      -2.151225      0.211149      0.619499
H       0.208108     -0.256591     -1.648950
H      -0.667839      1.258346      1.045160
H      -0.651166      1.451459     -0.731063
H       1.578533      1.590611      0.733630
