16
Extracted from Q-Chem output
C       2.205199     -0.502987     -1.159579
N      -0.202084     -0.213081     -1.331803
C       0.978932      0.195596     -0.594125
C      -1.300334     -0.451473     -0.764636
C      -1.664207     -0.382967      0.708351
O      -2.286123     -1.303272      1.176195
C      -1.313080      0.835241      1.526617
H       3.109374     -0.160430     -0.653488
H       2.300804     -0.298268     -2.226145
H       2.126409     -1.583379     -1.028336
H       0.909429      0.002664      0.482303
H       1.084176      1.277303     -0.729471
H      -2.126125     -0.810615     -1.382440
H      -0.496051      0.586479      2.207306
H      -1.010673      1.680991      0.910642
H      -2.176889      1.102475      2.135019
