16
Extracted from Q-Chem output
C       1.754472     -0.097596     -1.501129
N      -0.060417      0.214597     -1.164108
C       0.818888     -0.635223     -0.031472
C      -0.645116     -0.725884     -0.313480
C      -1.522593     -0.220592      0.811688
O      -2.349419     -0.959889      1.284995
C      -1.376105      1.211329      1.252540
H       2.683745     -0.158767     -0.925498
H       1.722917      0.877465     -1.967114
H       1.720829     -0.896032     -2.234403
H       1.271553     -1.618342     -0.128227
H       1.127947     -0.062120      0.832464
H      -1.015460     -1.684693     -0.695410
H      -1.700929      1.304472      2.286922
H      -0.366546      1.594728      1.115353
H      -2.029348      1.821494      0.624188
