9
Extracted from Q-Chem output
N       2.750704      1.620694      0.724806
C       1.809120      1.030092      0.447839
C       0.661564     -0.749500     -0.738660
C      -0.700729     -1.017386     -0.668564
N      -1.284555     -0.123609      0.170185
N      -0.459589      0.728037      0.679540
N       0.691649      0.329097      0.119275
H      -1.287973     -1.777638     -1.155442
H      -2.254119     -0.042397      0.438042
