16
Extracted from Q-Chem output
C       2.148417     -0.088255     -0.051386
O       1.266731     -0.383476      1.003416
C       0.122448      0.431621      1.004116
C      -0.925753     -0.029494      0.016250
N      -1.818053      0.731726     -0.470616
O      -1.709669      2.041066     -0.006838
C      -0.975493     -1.472825     -0.371610
H       2.980844     -0.787090      0.016473
H       1.670315     -0.199533     -1.033362
H       2.532692      0.936171      0.028766
H       0.379540      1.478060      0.812668
H      -0.305328      0.378859      2.009469
H      -2.414621      2.490023     -0.476221
H      -1.075538     -2.097740      0.518574
H      -0.055914     -1.782316     -0.870274
H      -1.820618     -1.646798     -1.034479
