16
Extracted from Q-Chem output
C       2.096834      0.108911      0.126205
O       1.348412     -0.284540      1.251729
C       0.063954      0.278246      1.276254
C      -0.834700     -0.226041      0.189393
N      -1.532031      0.543094     -0.634124
O      -0.892140      1.707525     -1.090583
C      -1.223286     -1.538782     -0.163069
H       3.084021     -0.339469      0.224927
H       1.639253     -0.241084     -0.807281
H       2.196421      1.200150      0.075076
H       0.108334      1.373254      1.239070
H      -0.381661     -0.020164      2.229513
H      -1.616870      2.311995     -1.272016
H      -0.810792     -1.887552     -1.106301
H      -2.010818     -0.572452     -1.039572
H      -1.343175     -2.317358      0.584781
