12
Extracted from Q-Chem output
O      -0.762823      0.811217     -1.550905
C      -0.145311      1.098662     -0.342272
C      -0.660701      0.324722      0.833424
C       0.507514     -2.299945     -0.215357
O       0.971846     -1.125532     -0.483056
C       0.701099      0.044603      0.295452
H      -0.089660      0.665678     -2.220007
H       0.152045      2.134639     -0.204100
H      -0.742766      0.795464      1.803303
H      -0.146462     -2.197895      0.689616
H      -1.443850     -0.383299      0.593794
H       1.580531      0.334993      0.854356
