14
Extracted from Q-Chem output
C       1.373628      0.144653     -0.440787
C       0.725632      0.840448      0.699805
C      -0.761450      0.955353      0.446751
C      -1.296387     -0.172393     -0.451516
O      -0.552856     -1.355665     -0.180585
C       0.725189     -1.040653      0.273542
H       0.980621      0.262595     -1.450038
H       2.460376      0.141750     -0.431315
H       0.665153     -0.650732      1.364996
H      -0.881742      1.925109     -0.050334
H      -1.305779      1.016811      1.389876
H      -1.199191      0.084695     -1.510619
H      -2.344557     -0.401489     -0.258123
H       1.344537     -1.928777      0.365203
