12
smiles: [N:5]#[C:6][H:12].[O:1]=[C:2]([C:3]([C:4]([H:9])([H:10])[H:11])=[O:7])[H:8]
O       -2.96446200       0.69833000      -0.54953800
C       -2.23724000      -0.24929200      -0.47635800
C       -0.73315100      -0.13338900      -0.19283600
C       -0.17671500       1.24096300       0.00547800
N        4.04464700      -1.14776500       0.86438400
C        2.94459300      -1.28225000       0.58208300
O       -0.09673200      -1.15355600      -0.14586100
H       -2.58123500      -1.29346800      -0.60685000
H       -0.66301700       1.71146300       0.86267700
H       -0.40799500       1.86407300      -0.86037800
H        0.89750800       1.18706500       0.16329500
H        1.91708800      -1.40883600       0.31831700
