12
Extracted from Q-Chem output
O      -2.310723      0.240753      0.951017
C      -1.678463     -0.379209      0.145053
C      -0.394084      0.127265     -0.514321
C       0.354218      1.093888      0.243621
N       1.721950     -0.283931      0.968252
C       1.722682     -1.124488      0.163219
O       0.224655     -0.665983     -1.308254
H      -1.963347     -1.392169     -0.198493
H      -0.707328      1.235278     -0.920058
H       1.177729      1.590037     -0.250020
H      -0.117043      1.584136      1.089359
H       1.955833     -2.016891     -0.377319
