15
Extracted from Q-Chem output
C      -2.213592     -0.146844     -0.327935
C      -0.956515      0.508322      0.241581
C      -0.241409      1.378022     -0.775585
N       1.000350      0.943516     -0.704692
C       1.235606     -0.135369      0.199303
N       2.540819     -0.579448      0.349220
C       0.079818     -0.440363      0.784053
H      -1.957609     -0.833396     -1.137062
H      -2.737937     -0.715042      0.442654
H      -2.889336      0.610746     -0.724749
H      -1.267527      1.223485      1.018215
H       1.753002      1.360220     -1.231466
H       2.622244     -1.364278      0.974979
H       3.015339     -0.767693     -0.521653
H      -0.085816     -1.222279      1.509588
