16
Extracted from Q-Chem output
C      -1.957072     -0.751559      1.579454
C      -1.276558     -0.039355      0.694575
C       2.154735      1.289683      0.031912
C       1.262090      0.846622     -0.839739
C       0.671141     -0.529933     -0.846699
C      -0.853580     -0.534799     -0.654268
H      -2.265120     -1.771035      1.368893
H      -2.233663     -0.345109      2.544774
H      -1.234197     -1.547932     -0.805987
H      -0.980563      0.976140      0.947356
H       2.545931      2.298663     -0.017769
H       2.529166      0.654285      0.828035
H       0.909448      1.519883     -1.619637
H       1.139171     -1.136794     -0.066988
H       0.897689     -1.007966     -1.805387
H      -1.308384      0.092830     -1.429518
