16
Extracted from Q-Chem output
C      -1.166802     -0.572441      1.394204
C      -0.593922      0.475701      0.536555
C       0.988657      0.901238      0.544175
C       1.187948      0.578240     -0.866525
C       0.717448     -0.761145     -1.198902
C      -0.680559     -0.263810     -0.790434
H      -0.536945     -1.448957      1.536722
H      -1.767555     -0.341399      2.274711
H      -1.439695     -1.082821     -0.106035
H      -1.172116      1.397458      0.543488
H       1.152606      1.942690      0.810067
H       1.533640      0.251462      1.227182
H       1.211046      1.347528     -1.628838
H       1.081280     -1.564270     -0.554967
H       0.773886     -1.046567     -2.245555
H      -1.288687      0.200715     -1.566844
