10
Extracted from Q-Chem output
N       3.251115     -0.535744     -0.066719
C       2.110425     -0.437185     -0.009831
C       0.688508     -0.252190      0.056170
N      -0.180323     -1.207460      0.108125
C      -1.393102     -0.516144      0.168204
C      -1.247157      0.910971      0.201262
N       0.121259      0.990360      0.058037
H      -2.316928     -1.048617      0.346754
H      -1.680540      0.182985     -0.851310
H       0.630872      1.854951     -0.012318
