12
Extracted from Q-Chem output
O       1.570598      0.518005     -1.789953
C       0.029027     -0.012299      0.379333
C      -1.033533     -0.639731     -0.399023
C      -1.103815     -0.567832      1.121522
C       1.194074      0.579291      0.473774
O       2.044475      0.949401     -0.532083
H       1.028919      1.267061     -2.069234
H      -0.834315     -1.602346     -0.855095
H      -1.709041     -0.006795     -0.963810
H      -0.959631     -1.488565      1.675279
H      -1.823530      0.114180      1.560061
H       1.640650      0.872435      1.416895
