14
smiles: [C:1]([C:2]([C:3]#[C:4][H:13])([H:11])[H:12])([H:8])([H:9])[H:10].[N:5](=[N+:6]=[N-:7])[H:14]
C       -1.71365300       0.49724300       0.17363500
C       -1.03546500      -0.72300900      -0.44984000
C        0.14215400      -0.37224000      -1.24071100
C        1.10298000      -0.06353300      -1.88559100
N        2.15952000      -0.60136800       1.37604700
N        1.88262800       0.52272700       1.79504100
N        1.67670200       1.49685200       2.30438700
H       -2.58649400       0.19340300       0.75327400
H       -1.02784000       1.02583200       0.83648300
H       -2.03870500       1.19600100      -0.59786700
H       -0.73598300      -1.42617700       0.33171700
H       -1.74039100      -1.25817600      -1.09143300
H        1.95690600       0.20571300      -2.46066100
H        1.94734200      -0.66172200       0.38433600
