14
Extracted from Q-Chem output
C      -1.936124      0.751092      0.194032
C      -1.252642     -0.555616     -0.204737
C       0.186711     -0.378265     -0.474894
C       1.201838     -0.266465     -1.158605
N       2.752665      0.135221      0.257513
N       2.032869     -0.036865      1.267025
N       0.915134     -0.167119      1.504671
H      -3.000453      0.584344      0.367033
H      -1.498163      1.152942      1.108028
H      -1.828716      1.500334     -0.591620
H      -1.378133     -1.293048      0.590659
H      -1.725695     -0.965459     -1.100599
H       1.836322     -0.205874     -2.012172
H       3.692213     -0.234235      0.367000
