11
Extracted from Q-Chem output
C       1.527837      0.759004     -0.632579
C       1.212136     -0.197122      0.125995
C       0.201816     -1.170833     -0.011846
N      -1.203827     -1.293843      0.434380
C      -0.847935     -0.098649     -0.285149
C      -1.042859      1.078202      0.525265
N      -1.320873      2.020536      1.123090
H       2.320306      1.437796     -0.885060
H       0.404117     -1.894300     -0.790908
H      -1.387438     -1.089006      1.414021
H       0.082932      0.580148     -1.243425
