13
Extracted from Q-Chem output
N      -1.671932     -0.113054     -0.755796
C      -0.426204      0.025665     -0.159344
O      -0.222472      1.223122      0.642560
C       0.070909     -1.040508      0.824629
O       1.255147     -0.352115      1.251587
C       1.135519      0.805662      0.468927
N       0.868943      0.288713     -0.881442
H      -1.856838      0.559863     -1.483303
H      -1.874201     -1.052370     -1.058361
H       0.326085     -1.986368      0.345784
H      -0.616125     -1.183721      1.658428
H       1.911365      1.534597      0.676444
H       0.700999      1.094852     -1.479240
