12
Extracted from Q-Chem output
C      -1.581305     -0.254008     -0.110907
C      -0.184008     -0.406642      0.421419
O       0.732498     -1.062400     -0.513992
C       1.590735      0.040423     -0.438615
C       0.752642      0.803331      0.457879
O       0.941666      1.195902     -0.907345
H      -2.214870      0.233759      0.632952
H      -1.574728      0.341331     -1.023230
H      -2.007817     -1.232541     -0.335556
H      -0.152435     -0.954331      1.366824
H       2.648415     -0.083970     -0.622577
H       0.941762      1.523056      1.240416
