12
Extracted from Q-Chem output
C      -1.459013     -0.332805     -0.258188
C      -0.201002     -0.351615      0.543309
O       0.874755     -1.182832     -0.144882
C       1.551771     -0.156714     -0.450098
C       0.761734      0.929362      0.284128
O       0.341650      1.983236     -0.289843
H      -2.124605      0.387588      0.221492
H      -1.273303      0.035195     -1.266536
H      -1.951473     -1.305492     -0.285935
H      -0.315173     -0.747212      1.552521
H       2.400910     -0.259074     -1.130898
H       1.366580      1.020320      1.241451
