11
Extracted from Q-Chem output
C      -1.359989      0.014655     -1.096223
N      -0.349102     -0.373579      1.312634
C       0.454385     -0.051362      0.386488
O       0.030759      0.189867     -0.863851
N       1.825037      0.067306      0.436616
H      -1.510953      0.235170     -2.150680
H      -1.660039     -1.009213     -0.871532
H      -1.944511      0.693244     -0.474550
H       0.132777     -0.535455      2.188148
H       2.228549      0.237278      1.339434
H       2.247169      0.569459     -0.324880
