11
Extracted from Q-Chem output
C      -1.608830     -0.062002     -0.783495
N      -0.370990     -0.082673      0.906236
C       0.645608      0.035828      0.106517
O       0.356201      0.159578     -1.118790
N       1.964422     -0.000871      0.479976
H      -1.615097      0.552672     -1.673259
H      -1.614056     -1.124234     -0.974348
H      -2.328237      0.259632     -0.046618
H      -0.236432     -0.283466      1.888225
H       2.191452      0.227797      1.429605
H       2.615960      0.317739     -0.214051
