15
Extracted from Q-Chem output
C      -0.855615      1.762635     -0.013535
C      -0.528418      0.333073      0.361526
C      -0.337035     -0.690985     -0.790456
C       0.911705      0.022657      0.853628
C       0.921697     -1.165912     -0.080934
N       1.666377     -2.177199     -0.116604
H      -0.843482      2.412458      0.864202
H      -1.844640      1.835820     -0.471514
H      -0.126152      2.152647     -0.728717
H      -1.259402     -0.045602      1.079159
H      -0.101681     -0.204167     -1.741335
H      -1.119477     -1.432284     -0.957588
H       1.366885     -2.822072     -0.847129
H       1.063176     -0.191703      1.911143
H       1.630948      0.784640      0.540995
