15
Extracted from Q-Chem output
C      -0.533210      1.580534     -0.241884
C      -0.589730      0.206151      0.406758
C      -0.604116     -0.926179     -0.626090
C       0.736257     -0.159083      1.101153
C       1.279894     -0.916831     -0.070439
N       2.158971     -1.368935     -0.768469
H      -0.405127      2.367504      0.504221
H      -1.451048      1.784095     -0.796532
H       0.301450      1.646120     -0.945900
H      -1.432175      0.159360      1.099770
H      -1.003400     -0.660739     -1.608065
H      -1.067345     -1.844359     -0.263214
H       0.889677     -1.380296     -1.172426
H       0.594250     -0.850922      1.933985
H       1.382087      0.660742      1.422194
