13
Extracted from Q-Chem output
C       1.900711     -0.001582     -0.046886
C       0.411469      0.034750     -0.054283
C      -0.450173      1.064643      0.145123
C      -1.769775      0.500490      0.024665
C      -1.695310     -0.902166     -0.305773
N      -0.334439     -1.099471     -0.266376
H       2.274498     -0.638514      0.758040
H       2.285014     -0.395665     -0.990302
H       2.306368      0.998444      0.094583
H      -0.187190      2.089541      0.353374
H      -2.700949      1.049805     -0.003670
H      -2.045405     -0.409388      0.883366
H       0.073088     -2.008610     -0.397103
