9
Extracted from Q-Chem output
N      -0.965563     -0.757618      0.434592
C      -0.636296      0.436572     -0.190652
C       0.743505      0.938339     -0.005757
C       1.230687     -0.200414     -0.322852
N      -0.193163     -1.701789      0.565545
H      -1.883041     -0.753060      0.899808
H      -1.376155      0.917645     -0.818389
H       1.071972      1.953845      0.178164
H       1.996915     -0.813685     -0.756316
