10
Extracted from Q-Chem output
C      -1.698534      0.089236     -0.110718
O      -0.566645      0.633444     -0.823520
C       0.585347      0.561569     -0.273483
O       0.905212     -0.917604      0.440874
C       1.851343      1.014703     -0.306527
C       2.002755     -0.371449     -0.052647
H      -2.547112      0.230905     -0.772326
H      -1.528697     -0.966230      0.087935
H      -1.841023      0.639080      0.818582
H       2.811082     -1.032228     -0.372022
