9
Extracted from Q-Chem output
O      -1.531095      3.033388      0.844110
C      -1.696376      1.946053      0.617022
C      -0.514897     -1.517846     -0.359789
N       0.443445     -0.750803     -0.213994
C       1.447852      0.104893     -0.056599
O       1.332476      1.298436      0.116915
H      -0.989217     -2.006049      0.496883
H      -0.927118     -1.733744     -1.350350
H       2.423504     -0.408551     -0.101517
