14
Extracted from Q-Chem output
O       2.507042      0.663718      0.310046
C       1.424663     -0.170723     -0.052802
C       0.176473      0.400030      0.591414
C      -2.338704      0.048221     -1.623169
O      -1.339075     -0.535648     -1.062408
C      -1.057517     -0.440490      0.359559
H       3.285942      0.393034     -0.177101
H       1.586349     -1.198767      0.300823
H       1.300568     -0.207949     -1.140624
H       0.339576      0.476138      1.670170
H      -2.904478      0.583740     -0.808378
H       0.008768      1.415012      0.221555
H      -1.937455     -0.009650      0.844613
H      -0.917930     -1.468016      0.700699
