16
Extracted from Q-Chem output
C      -0.988517     -0.616857     -1.280694
C      -0.995913     -0.297660      0.197920
C       0.282475     -0.353815      0.980321
C       1.614634     -0.373351      0.290633
C      -0.835395      1.138441      0.652733
O      -0.217463      1.874945     -0.328670
H      -0.175877     -0.119992     -1.807196
H      -1.924110     -0.291566     -1.738708
H      -0.893791     -1.693149     -1.438833
H      -1.820902     -0.788429      0.708279
H       0.216453     -0.889841      1.923556
H       1.712793      0.478937     -0.385235
H       2.428903     -0.331324      1.014695
H       1.737589     -1.280790     -0.306143
H       0.031923      0.838779      1.559433
H      -0.126400      2.765532      0.012652
