11
Extracted from Q-Chem output
O      -2.610937     -0.891168      0.201076
C      -1.468541     -0.973217      0.382971
C       0.192420      1.149088     -0.591779
C       0.821338     -0.034599      0.129569
C      -0.180120     -1.067594      0.590222
H       0.957231      1.862143     -0.901061
H      -0.512810      1.677955      0.053465
H       1.382022      0.323064      0.998177
H       1.549751     -0.518401     -0.527866
H       0.141208     -1.953695      1.122937
H      -0.345407      0.827831     -1.486739
