12
Extracted from Q-Chem output
C       1.226956      0.412210     -1.002105
C       0.291768      0.909417      0.039605
O       0.304083      1.817555      0.770388
C      -0.821812     -0.818842      1.183480
C      -1.181785     -0.651699     -0.132494
O      -1.316564     -1.313712     -1.129656
H       0.805233     -0.427124     -1.547473
H       2.141489      0.114415     -0.487963
H       1.449891      1.238174     -1.679207
H      -0.734506     -1.824166      1.580469
H      -0.938899     -0.000553      1.875341
H      -1.150787      0.574578     -0.331533
