16
Extracted from Q-Chem output
C       2.286168      0.717600     -0.052015
C       1.041559     -0.049785     -0.379621
C       0.185771     -0.725593      0.658653
C      -0.973564     -0.459407     -0.264899
C      -2.375726     -0.229147      0.211135
O      -0.205928      0.856860     -0.566297
H       2.567744      1.389363     -0.864973
H       2.166586      1.283545      0.871889
H       3.098433      0.001341      0.093157
H       1.116880     -0.536869     -1.364339
H       0.408917     -1.712065      1.058532
H      -0.149420      0.888719      0.539728
H      -0.960736     -0.959683     -1.245868
H      -2.830263     -1.201259      0.416832
H      -2.386587      0.351955      1.133274
H      -2.978228      0.270715     -0.549706
