17
Extracted from Q-Chem output
C      -2.013698     -0.485727     -0.791901
O      -0.761445     -1.140857     -0.826013
C       0.328778     -0.415302     -0.528932
C       1.573615     -1.242076     -0.578432
C       0.231204      0.629290      1.929491
C       0.365975      0.957733     -0.640092
C       0.422682      2.084012     -0.140738
H      -2.006819      0.408430     -1.420514
H      -2.743649     -1.200682     -1.163716
H      -2.264785     -0.205212      0.235060
H       1.446648     -2.137963      0.027740
H       2.427763     -0.674451     -0.215282
H       1.772841     -1.552539     -1.608244
H       1.202190      0.635608      1.486814
H       0.170324      0.491347      3.006747
H      -0.680614      0.791761      1.401180
H       0.533866      3.146610     -0.133255
