14
Extracted from Q-Chem output
C      -1.654488     -0.085315      0.440484
C      -0.275740      0.515909      0.297977
C       0.926325      0.945978     -1.406295
C       0.689487     -0.281640     -0.710611
C       1.503254     -0.544015      0.556524
O       0.612393      0.239235      1.368893
H      -1.597699     -1.153485      0.650555
H      -2.177731      0.404889      1.263119
H      -2.229686      0.070623     -0.474242
H      -0.349326      1.598940      0.121324
H       0.136804      1.018248     -2.179907
H       0.198027     -1.132632     -1.183824
H       2.507609     -0.118135      0.540844
H       1.528615     -1.584630      0.889971
