14
Extracted from Q-Chem output
C      -1.691495     -0.048484      0.417390
C      -0.254861      0.360047      0.252589
C       0.738512      1.028987     -1.213737
C       0.713594     -0.347782     -0.694445
C       1.567226     -0.554966      0.554084
O       0.618826      0.194292      1.351512
H      -1.750248     -1.083869      0.754917
H      -2.187616      0.587027      1.151656
H      -2.217650      0.046588     -0.533300
H      -0.187072      1.484621     -0.069866
H      -0.075632      1.076519     -1.960771
H       0.359831     -1.186797     -1.284771
H       2.547224     -0.077196      0.538093
H       1.637206     -1.585014      0.911461
