15
Extracted from Q-Chem output
O       2.823106      0.014154      0.832236
C       1.827147      0.296011      0.046097
C       0.901927     -0.866116     -0.116560
C      -0.570096     -0.499882     -0.262264
C      -1.178307      0.490900      0.783968
C      -1.538300      1.344463     -0.406866
C      -0.972469      0.531627     -1.293315
H       2.777197     -0.888430      1.214422
H       1.034967     -1.624998      0.678949
H       1.245087     -1.330366     -1.054107
H      -1.153067     -1.422440     -0.336437
H      -2.004946      0.102259      1.383019
H      -0.431835      0.935307      1.448342
H      -2.060503      2.289031     -0.488687
H      -0.842301      0.568438     -2.367957
