13
Extracted from Q-Chem output
N       1.921839      0.882963     -0.040779
C       0.596031      0.412060     -0.026401
C       0.050329     -0.839940      0.091829
O       0.802955     -1.970050      0.236351
C      -1.360258     -0.718466      0.039676
C      -1.634309      0.619159     -0.111213
N      -0.455825      1.288741     -0.149236
H       2.457246      0.472094     -0.792603
H       2.400365      0.687456      0.827460
H       0.219510     -2.728959      0.261661
H      -2.087834     -1.512903      0.108682
H      -2.579685      1.129830     -0.189778
H      -0.330364      2.278014     -0.255649
