13
Extracted from Q-Chem output
N       1.904902      0.616660     -0.112310
C       0.584161      0.318915     -0.034543
C       0.051227     -0.998386     -0.092478
O       0.846969     -2.114590     -0.300859
C      -1.394713     -0.812624     -0.222313
C      -1.647928      0.506981     -0.114996
N      -0.436839      1.194727     -0.001604
H       2.469976     -0.220883     -0.143997
H       2.278634      1.370240      0.437973
H       0.391514     -1.494150      0.900551
H      -2.120385     -1.603784     -0.315142
H      -2.579890      1.045661     -0.067922
H      -0.347628      2.191232      0.067641
