11
Extracted from Q-Chem output
O       2.025263     -0.931599     -1.380473
C       1.283283     -0.673664     -0.534156
O      -0.162571     -0.769538      1.420887
C      -1.046381     -0.782438      0.498346
C      -0.969757      0.164384     -0.539797
C       0.034174      1.106997     -0.186053
C       0.940828      0.343345      0.529164
H      -1.890854     -1.461011      0.606970
H      -1.747644      0.283402     -1.280159
H       0.050225      2.175924     -0.323264
H       1.700189      0.634612      1.240496
