15
Extracted from Q-Chem output
C      -1.637066      0.213642     -0.553307
C      -0.667139      0.134958      0.616523
O      -1.428868     -0.230433      1.757529
C       0.449891     -0.825496      0.406128
C       1.858343      0.654854     -0.902970
N       1.527855     -0.471724     -0.276040
H      -2.395282      0.976759     -0.370818
H      -1.106163      0.458803     -1.475550
H      -2.132258     -0.749732     -0.682217
H      -0.226051      1.137577      0.765866
H      -0.827742     -0.303405      2.501985
H       0.383407     -1.850256      0.738529
H       2.845441      0.722159     -1.325276
H       1.152752      1.464529     -0.965964
H       2.233404     -1.193683     -0.330013
