12
Extracted from Q-Chem output
N       1.868088     -0.650965      0.156519
C       0.775607     -0.210850     -0.528224
C      -0.579113     -0.890873     -0.685674
O      -1.415894      0.103027     -0.104809
C      -0.503411      0.935027      0.488973
N      -0.711157      1.964462      1.153056
H       0.985981      0.328745      0.623267
H       1.587564     -1.404257      0.782716
H       1.003330      0.521057     -1.302907
H      -0.852319     -1.061866     -1.727926
H      -0.636110     -1.826526     -0.124076
H      -1.701705      2.183387      1.271957
