12
Extracted from Q-Chem output
N       1.960038     -0.015920      0.237843
C       0.604597      0.114059      0.008642
C      -0.183422      1.226354     -0.148655
C      -1.557578      0.850333     -0.344157
C      -1.505342     -0.560895     -0.146599
N      -0.189595     -0.995788      0.002015
H       2.410608     -0.776511     -0.245238
H       2.466945      0.846401      0.129274
H       0.195151      2.238567     -0.172645
H      -1.990064      0.185864      0.755774
H      -2.287423     -1.279437     -0.352273
H       0.106962     -1.906432      0.305856
