15
Extracted from Q-Chem output
O      -2.051880     -0.293184      1.153535
C      -1.567976      0.276903     -0.031212
C      -0.235623     -0.343619     -0.487832
C       0.232059      0.214083     -1.834472
C       0.771276     -0.257055      0.552902
C       1.577404     -0.177677      1.482779
C       2.332829     -0.076267      2.586821
H      -1.396709     -0.157384      1.844803
H      -1.441360      1.363964      0.063449
H      -2.324243      0.095314     -0.797021
H      -0.408528     -1.424944     -0.588536
H      -0.537452      0.061733     -2.593021
H       0.430070      1.284746     -1.760716
H       1.146290     -0.277883     -2.163726
H       3.405833     -0.161444      2.376158
