15
Extracted from Q-Chem output
O      -1.814325     -0.546121      1.403957
C      -1.401911      0.227331      0.300171
C      -0.532019     -0.567698     -0.653660
C       0.307244      0.252232     -1.623718
C       0.863997     -0.914046     -0.292652
C       1.448315     -0.150825      0.756028
C       1.979864      0.362398      1.709175
H      -1.040619     -0.734801      1.940848
H      -0.866257      1.127185      0.626920
H      -2.315698      0.544809     -0.206235
H      -1.078124     -1.377988     -1.130598
H       0.182660     -0.016198     -2.668558
H       0.351837      1.313970     -1.407184
H       1.388704     -0.225241     -1.461154
H       2.470374      0.797104      2.547592
