13
Extracted from Q-Chem output
O      -2.379105     -0.180223      0.876106
C      -1.451409      0.573350      0.913946
C       0.314012     -0.887739     -1.094637
O      -0.753890      0.026274     -1.391314
C      -0.479898      0.793578     -0.228523
C       0.866893      0.073630     -0.031795
O       1.079488     -0.395840      1.268798
H      -0.061723     -1.820046     -0.662575
H      -1.234926      1.187368      1.812132
H       0.934880     -1.091606     -1.969064
H      -0.428813      1.869063     -0.435070
H       1.712032      0.667253     -0.389898
H       1.945027     -0.802767      1.327666
