16
Extracted from Q-Chem output
C       1.939603     -0.120566     -0.006976
C       0.943565      0.867364     -0.541495
C      -0.672940      0.124550      0.517939
C      -1.025068     -1.309720      0.732344
C      -1.645707      0.903930     -0.233336
O      -0.683480      0.407410     -1.150296
H       1.759186     -1.114885     -0.420622
H       1.909257     -0.183950      1.078660
H       2.938067      0.181233     -0.343779
H       1.172785      1.073363     -1.590196
H       0.871607      1.791750      0.016961
H      -0.141003     -1.950402      0.753536
H      -1.493474     -1.376659      1.720120
H      -1.726647     -1.707042     -0.012635
H      -1.689586      1.989686     -0.145833
H      -2.609441      0.443879     -0.445768
