12
Extracted from Q-Chem output
N       2.195906      0.176404      0.168374
C       0.914554     -0.342822      0.137928
C      -0.137093      0.704581      0.174590
C      -1.400390      0.454897     -0.030175
C      -2.657139      0.219786     -0.235029
N       0.602695     -1.574913      0.130204
H       2.947907     -0.452970     -0.052552
H       2.327469      1.117002     -0.159633
H       0.164676      1.725688      0.387836
H      -3.078731      0.264946     -1.232233
H      -3.312433     -0.047557      0.585528
H       1.426654     -2.169622      0.090914
