11
smiles: [C:5](=[O:6])([H:10])[H:11].[N:1](=[C:2](/[C:3](=[O:4])[H:8])[H:9])\[H:7]
N        1.23536200      -0.68100000      -1.11648800
C        0.84762800      -1.06375000       0.01951200
C       -0.62427600      -1.26682600       0.29743500
O       -1.48464200      -1.14772200      -0.52351000
C       -0.64506100       1.90638900       0.07289200
O       -0.34857600       1.42170800       1.12503100
H        2.24945800      -0.58889100      -1.14658900
H       -0.86085700      -1.54267000       1.34598000
H        1.51513300      -1.26814500       0.86524800
H       -0.69007600       1.30656200      -0.85629800
H       -0.88915700       2.98144300      -0.02921700
