14
Extracted from Q-Chem output
O      -0.855665      1.852704     -0.497376
C      -0.830071      0.909922      0.516847
C      -1.283210     -0.445265      0.182240
C       0.928824     -1.643623     -0.863479
C       1.279211     -0.249327     -0.596036
C       0.198961     -0.213688      0.499783
H      -0.181187      2.513336     -0.324963
H      -1.052580      1.294126      1.509051
H      -1.516879     -0.630920     -0.856013
H      -1.868648     -1.005843      0.897170
H       1.434677     -2.243274     -0.080120
H       1.033254      0.447692     -1.397332
H       2.243502     -0.008331     -0.140038
H       0.535067     -0.543543      1.473484
