11
Extracted from Q-Chem output
O       2.269178     -0.519272      0.101685
C       1.028268     -0.092396      0.060324
N       0.055393     -0.976315     -0.093182
C      -1.201251     -0.259962     -0.106970
C      -0.710429      1.156530      0.066918
C       0.635491      1.287376      0.170643
H       0.174487     -1.970175     -0.183093
H      -1.850876     -0.590846      0.709296
H      -1.730180     -0.414731     -1.052542
H      -1.435982      1.963612      0.099874
H       2.799090      0.283771      0.216854
