11
Extracted from Q-Chem output
O       2.335921     -0.480080      0.106440
C       1.081158     -0.299790      0.042369
N       0.032667     -1.090029     -0.106725
C      -1.161835     -0.247282     -0.102470
C      -0.571400      1.141048      0.078246
C       0.767124      1.101123      0.163442
H       0.040628     -2.089008     -0.208369
H      -1.833928     -0.527020      0.714983
H      -1.712124     -0.347222     -1.043438
H      -1.224711      2.004526      0.121479
H       2.259646      0.764417      0.227667
