13
Extracted from Q-Chem output
C       0.304655      1.215285      0.037175
C       1.245744      0.049023     -0.280495
C       0.449735     -1.228523     -0.213699
C      -0.932072     -0.830978      0.103653
C      -1.026275      0.569704      0.032882
N       0.903427     -0.633053     -1.453488
H       0.344797      1.935000     -0.786270
H       0.446076      1.786305      0.967347
H       2.263652      0.110367      0.115872
H       0.824761     -2.182293      0.156286
H      -1.069816     -0.374100      1.228294
H      -1.794558     -1.483978      0.009689
H      -1.973986      1.098284      0.094929
