15
Extracted from Q-Chem output
C      -0.623860      1.432694     -0.336532
C      -0.132611      0.031457     -0.106854
C      -1.070392     -0.831372      0.692787
N       0.529847     -0.615820     -1.179941
C       1.558913     -0.850399     -0.219030
C       2.476134      0.185932      0.362623
N       1.334324      0.394689      0.896144
H      -0.874846      1.900216      0.615005
H      -1.524485      1.387949     -0.956941
H       0.124938      2.043649     -0.837262
H      -2.057635     -0.803432      0.225142
H      -0.740443     -1.867177      0.729243
H      -1.157980     -0.446322      1.708641
H       0.825747      0.031738     -1.901813
H       1.584258     -1.845031      0.211891
