12
Extracted from Q-Chem output
O      -3.111009     -0.435119     -0.394699
C      -2.031684     -0.255981     -0.768652
C      -0.805572     -0.021540     -1.184226
C       0.709498      0.841063      1.224634
N       1.425848     -0.323704      0.749146
C       1.143166     -1.050383     -0.222757
O       0.136891     -1.036855     -1.158983
H      -0.289623      0.585406      1.583658
H      -0.577314      0.915197     -1.671294
H       0.605377      1.616806      0.463738
H       1.268046      1.262739      2.059942
H       1.770096     -1.907137     -0.460431
