12
Extracted from Q-Chem output
O      -2.389650      1.238115     -0.373333
C      -1.441866      0.491108     -0.239605
C      -0.909142     -0.461166     -1.094885
C       0.735139      0.661724      1.250168
N       1.558153      0.256196      0.321357
C       1.382761     -0.796327     -0.415770
O       0.257509     -1.180020     -0.925444
H      -0.866112      0.538277      0.770626
H      -1.487153     -0.875837     -1.905247
H       0.781844      1.698550      1.568250
H       0.328038     -0.056279      1.958660
H       2.225276     -1.389947     -0.751215
