13
Extracted from Q-Chem output
O       2.023780     -0.868314     -0.606577
N       1.778188      1.118773     -0.454523
C       0.680895      0.913789     -0.059785
C      -0.011721     -0.930451      0.202438
C      -1.275758     -0.124611     -0.059211
C      -0.716916      1.254373      0.297691
H       2.745811     -1.485393     -0.831535
H       0.082209     -1.875000     -0.312191
H       0.285193     -0.995972      1.243538
H      -1.529133     -0.160553     -1.119164
H      -2.144138     -0.471755      0.509435
H      -1.110281      2.116480     -0.239268
H      -0.770062      1.451264      1.370046
