13
smiles: [C:1]1([H:7])([H:8])[N:2]([H:9])[C@:3]1([C@@:4]1([H:11])[C-:5]=[O+:6]1)[H:10].[H:12][H:13]
C       -1.98286100      -0.43653900      -0.18121200
N       -1.67095600       0.94642400       0.15563700
C       -0.73682000       0.19295500      -0.66943200
C        0.59539100      -0.23143100      -0.15417700
C        1.06526800       0.15588700       1.21057000
O        0.60999000      -1.03511800       1.06435400
H       -1.88641700      -1.19265000       0.59063000
H       -2.81615800      -0.57293600      -0.85956600
H       -1.34129200       1.02836400       1.11180300
H       -0.69358500       0.52750500      -1.70069800
H        1.32754300      -0.56297300      -0.88054800
H        4.20226900       0.63117200       0.01886500
H        3.69570000       0.79641400       0.53891700
