13
smiles: [C+:3](=[C:6]=[C-:7][H:13])[H:11].[O:1]([C:2]([C:4](=[O:5])[H:12])([H:9])[H:10])[H:8]
O       -2.58918100       0.06206600      -0.04039300
C       -1.76653600      -0.10697900       1.06769200
C        0.93875300      -0.92004300      -0.68097300
C       -0.54569200       0.76593600       1.01020600
O       -0.34145300       1.51506200       0.09261000
C        2.16890600      -0.56271100      -1.10596000
C        3.32901500      -0.27216300      -1.37072700
H       -2.16371100       0.72321600      -0.60192600
H       -2.29902300       0.12793600       2.00090600
H       -1.42585000      -1.14875800       1.15821500
H        0.18145600      -0.81335700      -1.46752900
H        0.16033800       0.68452400       1.85799500
H        4.34090900      -0.02341600      -1.59196700
