13
Extracted from Q-Chem output
O      -2.322806     -0.323818      0.032591
C      -1.082665     -0.393489      0.633509
C       0.532432      0.301200     -0.944936
C      -0.463292      1.033116      0.685349
O      -1.231535      1.964946      0.497939
C       1.724034     -0.354891     -0.814925
C       2.839354     -0.804633     -0.639684
H      -2.525877      0.630900      0.019299
H      -1.122950     -0.724248      1.684802
H      -0.477705     -1.167798      0.129039
H      -0.142717     -0.043073     -1.730685
H       0.451907      1.138601      1.285904
H       3.809749     -1.225500     -0.510052
