14
Extracted from Q-Chem output
C      -1.822395      0.062302      0.614421
C      -0.438464     -0.011750      0.029654
C       0.121759     -1.185879     -0.534079
O       1.986516     -0.224975      0.201042
C       1.691506      0.917565     -0.346763
O       0.122862      1.140486     -0.344359
H      -2.133133     -0.898016      1.026992
H      -1.850242      0.819277      1.396057
H      -2.529325      0.346894     -0.165543
H       0.332152     -0.472703      0.843393
H      -0.178819     -2.139434     -0.113914
H       0.773826     -1.206653     -1.392780
H       2.016746      1.802560      0.213220
H       1.920259      1.031274     -1.420705
