14
Extracted from Q-Chem output
C      -1.473697     -1.314735      0.869566
C      -0.487930      0.890783     -0.489887
C       0.014434      2.022373     -1.187123
N       0.403646      2.945234     -1.753651
C       0.335896     -0.050952      0.006685
O      -0.084543     -1.132898      0.670229
C       1.821624     -0.032264     -0.104434
H      -1.578868     -2.246244      1.419481
H      -1.894989     -0.492833      1.454650
H      -1.997960     -1.391156     -0.086770
H      -1.561141      0.833629     -0.383335
H       2.160248     -0.937977     -0.609935
H       2.261119     -0.028006      0.894358
H       2.169998      0.838860     -0.653398
