14
Extracted from Q-Chem output
C      -1.865217     -0.956922      0.607525
C      -0.422616      0.545517     -0.527049
C      -0.203044      1.941458     -0.628162
N      -0.047378      3.083473     -0.666641
C       0.546590     -0.349574     -0.016880
O       0.128795     -1.447255      0.400436
C       2.012138     -0.049546      0.010432
H      -1.653607     -0.665108      1.624642
H      -2.585133     -0.340073      0.091892
H      -1.963519     -2.016597      0.425538
H      -1.032814      0.109199     -1.309346
H       2.534077     -0.716975      0.691389
H       2.167524      0.989952      0.303637
H       2.420705     -0.160771     -0.996112
