14
Extracted from Q-Chem output
N       1.874087      0.466139      1.840595
C       0.687909      0.595890      1.198120
O      -0.120383      1.454301      1.481572
C       0.443420     -0.406713      0.085227
C      -0.989465     -0.371687     -0.383111
C      -1.587328     -0.070544     -2.152663
O      -1.157797     -1.223811     -1.512915
H       2.109871      1.138583      2.548412
H       2.552521     -0.221951      1.574560
H       0.690157     -1.420483      0.409756
H       1.094033     -0.172411     -0.761354
H      -1.744040     -0.573432      0.374716
H      -1.163897      0.699679     -0.744822
H      -2.668241      0.032137     -1.864852
