16
Extracted from Q-Chem output
C      -1.205720      0.434656      0.888855
C      -1.743351      0.004429     -0.422389
C      -0.211808      0.335046     -0.247603
C       0.751553     -0.832228     -0.258753
C       2.066688     -0.456955      0.412791
C      -0.169060      1.307363     -1.273765
H      -1.111777     -0.314179      1.666448
H      -1.477208      1.424613      1.231529
H      -2.388455      0.671330     -0.977903
H      -1.902526     -1.046363     -0.624999
H       0.931530     -1.113129     -1.298375
H       0.308591     -1.695995      0.247845
H       2.771572     -1.289505      0.391447
H       1.911164     -0.174051      1.456854
H       2.526130      0.390140     -0.100507
H      -0.832963      2.140299     -0.980211
