13
Extracted from Q-Chem output
O       0.597292     -0.312186     -0.843358
C       1.646566     -0.270828      0.153822
C       1.030581     -0.670700      1.439750
C      -0.170460     -0.690217      1.580295
C      -1.343357     -0.469930      0.755932
C      -0.656810      0.191383     -0.508458
O      -0.622781      1.565480     -0.245105
H      -0.222663      2.000873     -1.001845
H       2.061751      0.737294      0.225639
H       2.411300     -0.950651     -0.215592
H      -2.075542      0.236296      1.144386
H      -1.844444     -1.397474      0.477738
H      -1.270045     -0.033000     -1.387201
