11
Extracted from Q-Chem output
N       0.969288      0.408475      1.022180
C       0.250619      1.319078      0.147422
C       0.858147     -0.150331     -0.292776
C      -0.489805     -0.729220     -0.535811
O      -1.040140     -1.316795      0.618368
C      -0.611126      0.762784     -0.814660
H       0.333783     -0.114860      1.619484
H       0.657575      2.321244      0.060059
H       1.719611     -0.186280     -0.941855
H      -0.624860     -1.353951     -1.414340
H      -1.972297     -1.094011      0.646683
