11
Extracted from Q-Chem output
N       1.028899      0.350849      1.034497
C       0.220622      1.123031      0.114557
C       0.989208     -0.077550     -0.329331
C      -0.366774     -0.782834     -0.646942
O      -1.059081     -1.115611      0.552212
C      -1.109223      0.456741     -0.330622
H       0.465058     -0.242631      1.634960
H       0.397450      2.185512      0.027011
H       1.899312     -0.170420     -0.904542
H      -0.510370     -1.462389     -1.479958
H      -1.915915     -0.367897      0.412890
