18
smiles: [C:1]([O:2][C@@:3]1([H:11])[C:4]([H:12])=[N+:5]([C-:6]([H:15])[H:16])[C:7]1([H:17])[H:18])([H:8])([H:9])[H:10].[H:13][H:14]
C        2.65206300       0.55859200       0.16040100
O        1.46607300       0.95025800      -0.47851100
C        0.67359600      -0.15619300      -0.85091100
C       -0.07004700      -0.90433200       0.20624700
N       -1.28575400      -0.54317200      -0.22837500
C       -2.54812300      -0.77195000       0.02555400
C       -0.72392300       0.28630800      -1.31445500
H        3.21163000       1.46159000       0.40005000
H        3.26702000      -0.07850700      -0.49024300
H        2.44470200       0.01244800       1.08929700
H        1.23464700      -0.75690400      -1.58220100
H        0.14625600      -1.62156400       0.98164700
H       -0.81009500       0.96836800       1.95155100
H       -1.51554300       1.13658900       2.12028500
H       -2.81296400      -1.45019600       0.82091400
H       -3.28704400      -0.26333500      -0.57110300
H       -0.92368500       1.34603200      -1.16597000
H       -1.05527700      -0.05129900      -2.29573100
