18
Extracted from Q-Chem output
C       2.600638      0.636098      0.187383
O       1.474878      0.964716     -0.586648
C       0.667604     -0.146683     -0.845141
C      -0.093537     -0.750832      0.323868
N      -1.297575     -0.576507     -0.292563
C      -2.461230     -0.413479      0.349137
C      -0.729822      0.248853     -1.364388
H       3.187350      1.544680      0.311187
H       3.218907     -0.124342     -0.308614
H       2.304829      0.264009      1.175729
H       1.209023     -0.858463     -1.484332
H       0.144980     -1.593983      0.961439
H      -0.658040      0.313905      1.485338
H      -1.553223      0.474870      1.517086
H      -2.732884     -1.174205      1.070607
H      -3.273444      0.033941     -0.213133
H      -0.939362      1.311387     -1.223516
H      -1.008246     -0.078736     -2.365567
