15
smiles: [C:1](=[N+:2]([C:3]([H:10])([H:11])[H:12])[C:4](=[C:5]([O-:6])[H:15])[H:13])([H:8])[H:9].[H:7][H:14]
C       -0.91361100      -0.39206200       1.16587000
N       -0.27037800       0.39439800       0.34357700
C       -1.06224900       1.36923900      -0.42004900
C        1.06514800       0.41898700       0.09158800
C        1.91832700      -0.68233700       0.37415500
O        3.12806700      -0.68741600       0.22989300
H       -0.66784600      -1.85319500      -1.63247600
H       -1.99079800      -0.38467000       1.15751900
H       -0.36189700      -1.04702200       1.81925000
H       -2.08792100       1.37099500      -0.06220300
H       -0.62602000       2.35578000      -0.27674400
H       -1.02454300       1.10706200      -1.47555700
H        1.43876600       1.28198200      -0.43732600
H       -0.01035400      -1.50656000      -1.67664100
H        1.39977700      -1.61140400       0.70194600
