11
Extracted from Q-Chem output
C      -1.681684      0.208853     -0.455127
C      -0.358839     -0.485822     -0.441530
O       0.000880     -1.328527     -1.218427
C       0.598230     -0.161306      0.714741
O       0.242634     -0.164180      1.860978
C       2.057277      0.145761      0.367849
O       2.355161      0.693864     -0.651370
H      -2.160131      0.109641      0.520740
H      -2.312399     -0.203275     -1.239158
H      -1.521481      1.276305     -0.629284
H       2.780353     -0.091315      1.170587
