13
Extracted from Q-Chem output
N       1.615903     -1.224105     -1.084664
C       1.037858     -0.214941     -0.651520
O       1.467825      1.106325     -0.491602
C       0.270469      1.533640      0.089097
C      -0.302080      0.134672     -0.103016
C      -1.614141     -0.289759     -0.633613
N      -1.193544     -0.639076      0.714953
H       2.573235     -1.040836     -1.372848
H       0.612765      1.203825      1.752439
H       0.413622      1.930776      1.343141
H      -1.606774     -1.056435     -1.400593
H      -2.408765      0.443188     -0.692702
H      -0.868243     -1.599118      0.764090
