9
Extracted from Q-Chem output
N      -1.798362     -0.427913      0.312293
C      -1.271068     -1.609363      0.765621
O      -1.543990     -2.697754      1.137426
C      -0.409578     -0.462958      0.522362
C       0.653819      0.277318      0.543310
C       1.762103      0.898097      0.582570
N       2.867538      1.418160      0.639323
H       2.908678      2.416226      0.461099
H      -2.556454      0.212709      0.510551
