9
Extracted from Q-Chem output
N      -0.929529      0.458376      0.617944
C      -1.045078     -0.854554      0.636093
O      -1.914880     -1.688628      0.658374
C       0.464288     -1.182884      0.619350
C       1.694553     -0.995783      0.597843
C       1.865394      0.330619      0.577348
N       1.705925      1.501429      0.563533
H       0.621087      1.563220      0.579429
H      -1.848959      0.892633      0.624592
