9
Extracted from Q-Chem output
C       1.317605     -0.101082     -0.147683
C       2.362527     -0.267537     -0.888834
C      -0.083284      0.279487     -0.436546
C      -1.179862     -0.177455      0.414032
O      -0.699361      1.153382      0.490264
H       1.626648     -0.298866      0.888146
H      -0.290899      0.502008     -1.477868
H      -0.959383     -0.803763      1.273717
H      -2.171382     -0.292597     -0.013129
