16
smiles: [C:1]([O:6][H:16])([H:7])([H:8])[H:9].[C:2]1([H:10])=[C:5]([H:15])[C:3]1([C:4]([H:12])([H:13])[H:14])[H:11]
C       -0.75418200       0.91933400      -2.10971000
C       -0.43611500      -1.04179300       2.16187100
C        0.54630200      -0.22579700       1.37606500
C        1.39552500      -0.83146800       0.27973500
C       -0.95172000      -0.22520300       1.31083400
O       -0.78645200       1.88593500      -1.08141100
H        0.24101700       0.82474800      -2.55885900
H       -1.44625100       1.25191200      -2.88257900
H       -1.07998200      -0.06727600      -1.76100300
H       -0.56927900      -1.80107300       2.91283400
H        1.03013300       0.61088000       1.88433000
H        1.63102400      -0.09173300      -0.49000000
H        2.34251200      -1.20677800       0.67675000
H        0.87678200      -1.66467300      -0.19929800
H       -1.82505300       0.19112400       0.83965000
H       -0.18436000       1.61673000      -0.38729400
