19
Extracted from Q-Chem output
C       2.986847     -1.105635      0.384488
C       1.869331     -0.536741     -0.478496
C       0.693967     -0.015381      0.221727
C      -0.507091     -0.018627     -0.614407
C      -1.646043      0.901965     -0.197491
C      -2.141256      0.631718      1.210195
O      -2.669976      0.705754     -1.164773
H       3.892938     -1.277915     -0.199350
H       2.681995     -2.058983      0.819105
H       3.216625     -0.424149      1.203558
H       1.655749     -1.167560     -1.356945
H       2.196109      0.437810     -0.901061
H      -1.279995      1.936671     -0.256994
H      -0.832777     -1.067167     -0.452349
H      -0.332273      0.055688     -1.699114
H      -2.548389     -0.380193      1.278278
H      -2.928337      1.338072      1.486521
H      -1.322044      0.729936      1.922678
H      -3.423248      1.248749     -0.926608
