12
Extracted from Q-Chem output
C       1.475095      0.252674      0.376596
C       0.491899     -0.865397      0.374763
O      -0.773070     -0.606569      1.014069
C      -1.481164      0.222731      0.170170
O      -0.516150      1.062387     -0.518669
C       0.679607      0.005379     -0.792774
H       2.545852      0.123168      0.435750
H       0.202975      1.353802      0.241730
H       0.711561     -1.925943      0.335803
H      -2.014738     -0.310521     -0.623414
H      -2.155465      0.856588      0.744521
H       0.777205     -0.159987     -1.855341
