11
Extracted from Q-Chem output
C      -2.287089     -0.118726     -0.786931
C      -0.938000      0.169628     -0.335301
C       0.173602      0.408329      0.049735
C       1.500438      0.680136      0.506628
O       2.127758      1.670557      0.308671
C       1.789063     -0.441729      2.026254
C       2.424762     -0.680031      0.969912
H      -2.963284     -0.147117      0.068962
H      -2.322009     -1.091369     -1.279426
H      -2.636988      0.642867     -1.483964
H       3.125202     -1.023225      0.233402
