12
Extracted from Q-Chem output
O      -1.485043     -1.468812      1.782252
C      -0.652315     -1.316558      0.936250
C      -0.552049     -0.002871      0.215293
C       0.690952      0.849887      0.387133
C       0.960898      0.804076     -1.095089
C       0.053751     -0.150296     -1.487766
N      -0.701693     -1.055035     -1.739609
H       0.107492     -2.078414      0.692393
H      -1.492461      0.526063      0.124759
H       1.463218      0.423626      1.032433
H       0.393189      1.824469      0.780293
H       1.310722      1.603279     -1.729146
