12
Extracted from Q-Chem output
O       0.770583     -1.415481     -0.131953
C       1.397896     -0.223605     -0.368464
C       0.834021      0.950534     -0.158124
C      -0.555533      1.058052      0.381787
N      -1.286505     -0.204525      0.483589
C      -0.583211     -1.370303      0.092248
O      -1.396400     -0.819018     -0.867258
H       2.402031     -0.371830     -0.739597
H       1.394741      1.852467     -0.361164
H      -1.169565      1.737959     -0.213097
H      -0.547472      1.454525      1.402037
H      -0.898200     -2.312555      0.529963
