12
Extracted from Q-Chem output
O       0.359137     -0.988351     -1.050606
C       1.273392     -0.193267     -0.558966
C       0.904658      0.869358      0.211238
C      -0.575557      1.119963      0.187952
N      -0.741413     -0.092029      0.909668
C      -0.716060     -1.229858      0.074817
O      -1.957963     -1.140788     -0.208682
H       2.308382     -0.433912     -0.793889
H       1.597442      1.459123      0.790545
H      -0.991187      1.093819     -0.820576
H      -0.910631      1.980417      0.758409
H      -0.316084     -2.141784      0.532172
