14
smiles: [C:1](=[O:2])([H:7])[H:8].[C:3]([C:4]([H:11])([H:12])[H:13])(=[C:5]=[C:6]([H:9])[H:14])[H:10]
C        2.18929800      -0.26209300       0.38476000
O        2.35911800      -1.41308700       0.66111700
C       -0.83238300      -0.44023900      -0.64720100
C       -1.16353700      -1.29694100       0.54152100
C       -0.71139300       0.85451200      -0.61320300
C       -0.59247500       2.14928500      -0.57343100
H        2.42662100       0.14013600      -0.61891200
H        1.78607600       0.46302900       1.11744700
H        0.36387400       2.61853300      -0.37219800
H       -0.68732800      -0.93844000      -1.60248000
H       -2.09530300      -1.84319200       0.37710000
H       -0.37912200      -2.03714400       0.71555400
H       -1.27239600      -0.69346200       1.44181400
H       -1.44555600       2.79620700      -0.74379000
