14
Extracted from Q-Chem output
C       1.763084      0.474699      0.130161
O       1.130749     -0.629321     -0.057398
C      -0.655474     -0.611474     -0.530237
C      -1.243709     -1.464933      0.554045
C      -0.932944      0.729229     -0.601671
C      -0.344371      1.823339     -0.431293
H       2.507422      0.763104     -0.622756
H       2.013719      0.741926      1.164485
H       0.883705      1.471739     -0.092095
H      -0.520175     -1.111267     -1.485061
H      -2.265112     -1.747147      0.289390
H      -0.652808     -2.372024      0.669492
H      -1.266053     -0.925776      1.500268
H      -0.440989      2.892700     -0.463026
