11
Extracted from Q-Chem output
N       2.589982     -1.273179      0.046841
C       1.544056     -0.679788      0.155581
C       0.313022     -0.111624      0.075027
C      -1.058088     -0.424253      0.612574
O      -1.531929      0.830359      0.094647
C      -0.240042      1.199039     -0.417432
H       1.358934     -1.229074     -0.866296
H      -1.142648     -0.475262      1.703879
H      -1.583792     -1.274999      0.166960
H       0.154050      2.097159      0.070817
H      -0.260645      1.354094     -1.501153
