15
Extracted from Q-Chem output
C      -1.268122      0.133095     -1.689375
C       0.006138      0.532823     -1.008123
C      -0.674748     -0.314013      1.381006
C       0.300251      0.314238      0.418569
O      -0.042247      1.605576     -0.080563
C       1.695500      0.160762      0.798647
C       2.835794      0.010087      1.130501
H      -2.111763      0.110669     -1.002187
H      -1.158518     -0.852663     -2.145822
H      -1.498251      0.847611     -2.481733
H       0.876589      0.574128     -1.661300
H      -0.545577      0.125578      2.370784
H      -1.701902     -0.147595      1.063900
H      -0.491364     -1.386743      1.458127
H       3.852314     -0.114706      1.420511
