15
Extracted from Q-Chem output
C       1.425591     -0.455457     -0.630153
C       0.135693      0.118777     -0.090731
C       0.015808      1.623617     -0.164019
C      -1.158023     -0.710964     -0.310678
C      -0.523492     -0.574738      1.008302
N      -0.487692     -0.823019      2.236163
H       2.281818     -0.046302     -0.090053
H       1.454658     -1.541190     -0.524482
H       1.541925     -0.210879     -1.689172
H       0.826264      2.098541      0.392704
H      -0.927003      1.971720      0.260886
H       0.070250      1.962971     -1.201686
H      -1.273141     -1.416689      2.502935
H      -1.069632     -1.656274     -0.835285
H      -2.078710     -0.169739     -0.500908
