13
smiles: [C:1](#[C:2][C:3]#[C:4][C:5]([H:9])([H:10])[H:11])[H:8].[O:6]=[C:7]([H:12])[H:13]
C        3.28305300      -0.45818600       0.59026000
C        2.20801900       0.03649600       0.39007800
C        0.97449600       0.60302000       0.16158500
C       -0.10198900       1.09812500      -0.03780900
C       -1.40481400       1.69746600      -0.27582400
O       -2.13590700      -1.59504900       0.34598800
C       -0.98295600      -1.87046500       0.50343200
H        4.23678000      -0.89635800       0.76607600
H       -1.61091100       2.47256600       0.46385900
H       -2.19196700       0.94489200      -0.21012700
H       -1.44439500       2.15023100      -1.26768900
H       -0.33417600      -2.18015900      -0.33839200
H       -0.50110700      -1.82981900       1.49928200
