11
Extracted from Q-Chem output
N       2.512733      0.071372      0.176110
C       1.162878      0.008703      0.106150
C       0.188257      0.931938     -0.088778
C      -1.180851      0.520387     -0.216177
C      -1.680502     -0.634644      0.249844
O       1.137652     -1.249293      0.376540
H       2.872873     -0.566341     -0.533712
H       0.486963      1.962410     -0.222885
H      -1.837156      1.191913     -0.762206
H      -2.697790     -0.925831      0.019397
H      -1.106887     -1.285756      0.895711
