12
Extracted from Q-Chem output
O       1.075681     -0.507696     -0.930931
C       0.722933      0.237331      0.163754
C      -0.725343     -0.018739      0.478235
C      -1.148554     -0.755108     -0.780185
O       0.026105     -1.453810     -1.154407
C       1.592333      1.046428      0.746751
H      -1.276465      0.903176      0.653639
H      -0.812098     -0.657894      1.358287
H      -1.915280     -1.513242     -0.626901
H      -1.451766     -0.064951     -1.574804
H       2.617339      1.105916      0.408886
H       1.277140      1.669796      1.570339
