14
Extracted from Q-Chem output
C      -1.950673     -0.693794     -0.072908
C      -0.604781     -0.074473     -0.077706
O      -0.399965      1.154923      0.588586
C       0.927489      1.158581      0.011538
C       1.580633     -0.009693      0.741728
N       0.625263     -0.916316      0.047920
C       0.478144      0.101972     -1.040921
H      -2.247502     -0.919045      0.952725
H      -1.928131     -1.623314     -0.639625
H      -2.683705     -0.018217     -0.513742
H       1.348864      2.150978     -0.117707
H       2.587808     -0.234309      0.393085
H       1.532103     -0.006789      1.832617
H       0.632427     -0.080842     -2.094855
