14
Extracted from Q-Chem output
C      -1.699754     -0.893240      0.131831
C      -0.959085      0.215258     -0.247687
O      -0.515880      1.213189      0.552327
C       0.855727      1.048121      0.009420
C       1.572565     -0.103407      0.725196
N       0.906085     -1.096680     -0.136241
C       0.335517     -0.022909     -0.959148
H      -2.303451     -0.914820      1.034019
H      -1.795708     -1.677832     -0.607690
H      -2.169686      0.426768     -0.650194
H       1.300670      2.018773     -0.202387
H       2.668148     -0.048074      0.605638
H       1.364758     -0.151579      1.802868
H       0.415225     -0.030595     -2.049713
