12
Extracted from Q-Chem output
C       2.715837     -0.051143      0.184558
C       1.589388     -0.049842     -0.217185
C       0.200516     -0.093394     -0.689183
C      -0.715319     -0.544181      0.427780
C      -1.665228      0.202100      0.962878
O      -0.130709      1.170591     -1.220562
H       3.718584     -0.039178      0.541339
H       0.157217     -0.855818     -1.481132
H      -0.998605      1.099685     -1.625431
H      -0.541147     -1.557792      0.776429
H      -1.831235      1.224016      0.643254
H      -2.294498     -0.180332      1.756201
