12
Extracted from Q-Chem output
C       2.516439      0.180747      0.377434
C       1.438561      0.032995     -0.124009
C       0.168315     -0.297326     -0.765982
C      -0.992546     -0.899663      0.009268
C      -1.151239      0.467284      0.626349
O      -0.725545      0.970458     -0.772276
H       3.471075      0.318430      0.828296
H       0.350376     -0.619826     -1.791305
H      -1.481053      0.258125     -1.108274
H      -0.882781     -1.805189      0.598936
H      -0.372536      0.866812      1.286177
H      -2.134183      0.851604      0.895033
