15
Extracted from Q-Chem output
C      -1.199292     -0.929296     -1.110407
C      -0.292701      0.012382     -0.334283
C      -0.873105      0.378612      1.036250
C       1.092461     -0.580154     -0.155524
C       2.106603      0.334398      0.374533
C       2.931871      1.092184      0.798546
O       1.375077     -1.721814     -0.414088
H      -2.177583     -0.469163     -1.259133
H      -0.779297     -1.174167     -2.086103
H      -1.337643     -1.866248     -0.569194
H      -0.151562      0.942667     -0.897501
H      -1.019273     -0.518533      1.642069
H      -0.220537      1.058919      1.584950
H      -1.842066      0.864160      0.913470
H       3.677410      1.754138      1.173630
