15
Extracted from Q-Chem output
C      -0.954106     -0.895358     -1.154891
C      -0.435779      0.311561     -0.375125
C      -0.917977      0.315384      1.076021
C       1.042439      0.397106     -0.445311
C       2.111596      1.198020     -0.529137
C       2.359707      0.219124      0.488734
O       1.787129     -0.937081      0.258788
H      -2.045052     -0.889502     -1.167293
H      -0.599916     -0.884875     -2.186223
H      -0.616329     -1.821760     -0.688533
H      -0.770387      1.232294     -0.862940
H      -0.570277     -0.576626      1.598979
H      -0.557642      1.196765      1.608024
H      -2.008266      0.322104      1.100448
H       2.728193      0.444651      1.492754
