16
Extracted from Q-Chem output
C       2.276537      0.094866      0.867470
C       1.258388     -0.793562      0.193772
C       0.415519     -0.294760     -1.337686
C      -0.079666     -0.295663     -0.122521
C      -1.317527      0.063975      0.603872
C      -2.393180      0.624153     -0.317517
H       2.240415      1.098711      0.441771
H       2.055003      0.176687      1.935012
H       3.290643     -0.294954      0.764224
H       1.558718     -0.767960     -1.130581
H       1.359820     -1.864117      0.373945
H      -1.070837      0.788081      1.387409
H      -1.686882     -0.823920      1.127868
H      -2.656045     -0.100432     -1.089571
H      -3.295789      0.871774      0.242780
H      -2.040984      1.527450     -0.817664
