11
Extracted from Q-Chem output
C      -2.131820     -0.395641     -0.865126
C      -1.372578      0.372135     -0.058874
C      -0.106889      0.711562     -0.569490
C       0.983387      0.983102      0.310560
O       1.080700      2.110404      0.767827
C       1.955016     -0.078245      0.528460
C       2.715953     -0.983437      0.718847
H      -2.996319     -0.935615     -0.493852
H      -1.654609      0.554056      0.977743
H      -1.843299     -0.536183     -1.899444
H       3.407395     -1.774630      0.894221
