11
Extracted from Q-Chem output
C      -0.891680     -0.377625     -0.273657
C      -0.062640      0.833895     -0.669489
C       1.168047      0.591531      0.191003
O       2.202286      1.148498      0.337731
C       0.674012     -0.699868      0.882641
N       0.758465     -1.629604      1.652872
H      -0.331014     -1.427635      0.873013
H      -1.043017     -1.104601     -1.069831
H      -1.830058     -0.144110      0.226891
H      -0.511892      1.793175     -0.408158
H       0.217681      0.872924     -1.722946
