15
Extracted from Q-Chem output
C       1.767263      0.387414      0.310447
C       0.414840     -0.165954     -0.101136
C      -0.716835      0.320893      0.801559
C      -2.078987      0.490448      0.184406
O      -2.296048      0.679204     -0.981165
C       0.148384     -0.531139     -1.528061
C       0.316630     -1.524468     -0.726748
H       1.989448      0.153361      1.356302
H       2.561429     -0.036057     -0.305277
H       1.797372      1.476095      0.204024
H      -0.478821      1.317867      1.198939
H      -0.814496     -0.317026      1.687329
H      -2.922206      0.474145      0.907742
H      -0.067198     -0.152571     -2.510778
H       0.346093     -2.587658     -0.560409
