15
Extracted from Q-Chem output
C       1.769454      0.294984      0.200861
C       0.342527     -0.175997      0.079882
C      -0.717488      0.456017      0.961827
C      -1.919753      0.344114      0.107658
O      -1.728524      0.134526     -1.119748
C      -0.345321     -0.407543     -1.240980
C      -0.138749     -1.532352     -0.333500
H       2.189330     -0.007110      1.163684
H       2.383696     -0.159546     -0.577388
H       1.863978      1.381857      0.118142
H      -0.606369      1.530057      1.201374
H      -0.826160     -0.080025      1.904311
H      -2.920330      0.665208      0.389059
H       0.016195     -0.201313     -2.239099
H       0.621250     -2.247524     -0.642505
