15
Extracted from Q-Chem output
C      -1.499808     -0.087015      0.099125
C      -1.019864     -1.358957      0.702419
O      -0.071628     -1.830327     -0.053113
C       0.323527     -1.005721     -1.011026
C       1.856960      0.942664      0.562814
C       0.655114      1.248071      0.103271
C      -0.253248      0.347588     -0.714282
H      -2.321722     -0.314077     -0.602325
H      -1.849467      0.659656      0.811027
H      -1.498286     -2.053192      1.372553
H       1.268042     -1.257702     -1.465281
H       2.428296      1.647261      1.153925
H       2.310338     -0.023825      0.370879
H       0.233282      2.226335      0.328826
H      -0.558181      0.888657     -1.610991
