12
Extracted from Q-Chem output
C      -2.607861     -0.049808      0.240106
C      -1.241171     -0.187119      0.096657
C      -0.067582     -0.102119     -0.418537
C       1.178424      0.451633      0.046652
C       2.277511     -0.466802      0.399328
O       2.340754      0.290665     -0.774748
H      -3.158323     -0.720100      0.886877
H      -1.376831     -0.143367      1.256829
H      -3.145382      0.780435     -0.207890
H       1.161825      1.417031      0.550672
H       2.127444     -1.533975      0.263540
H       2.956716     -0.178289      1.197606
