14
Extracted from Q-Chem output
N       0.645902      1.182591      0.613387
C       0.492260     -0.068995      1.389696
O       0.405757     -0.007639      2.577561
C       0.232432     -1.209229      0.467132
C      -0.909323     -0.620413     -0.442738
C      -0.401150      0.682167     -0.905964
O      -1.139626     -1.087208     -1.662249
H       0.453724      1.977464      1.215976
H       1.581725      1.271691      0.233478
H      -0.036706     -2.102529      1.024262
H       1.087488     -1.413322     -0.183549
H      -1.802076     -0.508127      0.210862
H       0.424135      0.600809     -1.600814
H      -1.096902      1.493858     -1.089453
