17
Extracted from Q-Chem output
C       1.365600     -0.386157      1.024113
C       0.921144      0.294705     -0.293524
C       1.527809     -1.650765      0.315929
C      -0.263187     -0.090295     -1.152192
C      -1.418087     -0.603333     -0.296835
C      -1.441131      0.758574      0.451002
C      -0.270059      1.218741     -0.404600
H       2.244388      0.146437      1.397620
H       0.564996     -0.373247      1.762977
H       1.756974      0.645944     -0.885816
H       2.503782     -1.592878     -0.205262
H      -0.125583     -0.278126     -2.207986
H      -1.195460     -1.496713      0.286837
H      -2.324422     -0.767833     -0.877284
H      -2.345301      1.328004      0.239231
H      -1.286517      0.745572      1.531504
H      -0.110215      2.222823     -0.776002
