12
Extracted from Q-Chem output
C       1.636469      0.527663     -0.424334
C       1.242174     -0.557368      0.003750
C       0.112306     -1.316023      0.415530
C      -0.898264      0.010501      0.514349
C      -0.421657      0.956885     -0.517705
O      -2.127570     -0.074841      0.115827
H       2.356439      1.228069     -0.789521
H       0.182528     -1.795913      1.387553
H      -0.246844     -2.008609     -0.345301
H      -0.714809      0.376543      1.544954
H      -0.530695      0.618156     -1.539679
H      -0.562633      2.022404     -0.355131
