15
Extracted from Q-Chem output
N       1.615706      0.458957     -1.174516
C       1.716401     -0.496594     -0.223944
O       2.734480     -1.108521      0.011439
C       0.443540     -0.803780      0.565088
N      -0.744066     -0.090402      0.176796
C      -1.205129      1.123839      0.566580
C      -1.764386     -0.406875     -0.653730
H       2.446984      0.723838     -1.671453
H       0.784425      1.012763     -1.263967
H       0.269722     -1.877499      0.488911
H       0.660727     -0.575022      1.612481
H      -1.346053      1.354391      1.621920
H      -1.323836      1.909808     -0.164502
H      -2.756119     -0.518589     -0.243857
H      -1.577973     -0.702159     -1.686272
