10
Extracted from Q-Chem output
C      -0.653443     -0.739202     -0.012752
C      -0.555799      0.782966      0.208907
N       0.866862      1.093473      0.034264
C       1.432575     -0.000619     -0.224941
O       0.705027     -1.134211     -0.287893
H      -0.995108     -1.287075      0.865799
H      -1.268524     -1.017555     -0.868906
H      -1.146748      1.351632     -0.510920
H      -0.876544      1.083114      1.207804
H       2.491702     -0.132522     -0.411363
