10
Extracted from Q-Chem output
C      -0.638580     -0.751351     -0.137870
C      -0.600863      0.713856     -0.443470
N       0.769272      1.029532     -0.515817
C       1.413980     -0.038738     -0.204083
O       0.743020     -1.126703      0.131023
H      -1.275438     -1.069575      0.681549
H      -0.923760     -1.278951     -1.052599
H      -1.225550      1.482743      0.504313
H      -0.916679      1.339982      1.285966
H       2.494281     -0.129348     -0.188522
