10
Extracted from Q-Chem output
O       2.068391     -0.951573      0.240360
C       0.896504     -0.849506      0.101250
N       1.039265      1.673101      0.134868
N       0.318521      0.671250      0.042428
C      -1.012096      0.534027     -0.117009
C      -1.230888     -0.838253     -0.152214
N      -0.168143     -1.639301     -0.030861
H       1.998355      1.313368      0.247358
H      -1.691886      1.363675     -0.193817
H      -2.211651     -1.283023     -0.270954
