10
Extracted from Q-Chem output
O       2.224885     -1.784326      0.371382
C       1.092125     -1.631814      0.160420
N       0.918690      1.670740     -0.348057
N       0.177962      1.213316      0.521678
C      -1.011376      0.609510      0.021432
C      -1.117755     -0.692169     -0.205944
N      -0.084657     -1.609783     -0.079251
H       1.733060      2.070414      0.137725
H      -1.864643      1.269028     -0.069127
H      -2.061921     -1.121152     -0.508850
