14
Extracted from Q-Chem output
C       2.333734     -0.554187     -1.084024
O       1.440255     -0.208573     -0.017285
C       0.211134      0.035737     -0.333391
C      -0.550060      0.408527      0.895601
C      -2.039703      0.142204      0.694601
O      -2.523037      0.795742     -0.453748
H       3.127305      0.191311     -1.108813
H       1.780057     -0.568957     -2.021276
H       2.754176     -1.533224     -0.858596
H      -2.213309     -0.940884      0.633409
H      -0.404767      1.494530      0.989958
H      -0.153830     -0.058532      1.804803
H      -2.612390      0.517494      1.544376
H      -1.898659      0.592322     -1.160639
