14
Extracted from Q-Chem output
C       1.656374     -0.443693     -1.239132
O       1.021550      0.146281     -0.113615
C       0.178541     -0.711033      0.544695
C      -0.621442      0.116573      1.542284
C      -1.485289      0.218923      0.339648
O      -1.392618      1.326847     -0.461382
H       0.945719     -0.554827     -2.063668
H       2.053549     -1.424006     -0.972994
H       2.461063      0.225658     -1.539085
H      -0.896871     -0.831324     -0.236155
H      -0.160515      1.049536      1.853347
H      -1.020793     -0.449521      2.376857
H      -2.489840     -0.191624      0.359112
H      -0.453931      1.555333     -0.520626
