15
Extracted from Q-Chem output
C       1.159809     -0.793573     -0.178328
C       1.278324      1.387545      0.394031
C       0.186753      0.403075      0.482329
O       0.104330      0.143901      1.739723
N      -1.010435      0.586614     -0.276363
C      -1.933387     -0.529643     -0.275678
H       0.523824     -1.666187     -0.052112
H       1.351162     -0.592303     -1.232375
H       2.084312     -0.952714      0.370350
H       1.484637      1.943442      1.301184
H       2.063792      1.336620     -0.351293
H      -0.839924      0.973315     -1.192817
H      -1.634608     -1.364954     -0.924915
H      -2.027039     -0.897733      0.745657
H      -2.917404     -0.185724     -0.595697
