15
Extracted from Q-Chem output
C      -2.932561     -0.727183     -0.130911
N      -1.497014     -0.644846      0.006143
C      -1.030424     -0.464391      1.156532
N       0.352076     -0.440879      1.417998
C       1.128879      0.248023      0.774478
C       2.669780      0.517585     -1.139650
C       2.016605      0.958829      0.141041
H      -3.198583     -1.696888     -0.556151
H      -3.474764     -0.596828      0.814865
H      -3.264956      0.035818     -0.837100
H      -1.639098     -0.380769      2.062550
H       3.750769      0.425813     -1.013014
H       2.280375     -0.445668     -1.466571
H       2.486745      1.242486     -1.935137
H       2.277291      1.918623      0.572571
