16
smiles: [C:1]([O:2][C:3]([C:4](=[C:5]([H:13])[H:14])[O:6][H:16])([H:10])[H:11])([H:7])([H:8])[H:9].[H:12][H:15]
C        2.22982700      -0.11290300      -0.24605300
O        0.94901900      -0.21475400       0.32364400
C       -0.07699500      -0.33620000      -0.63641800
C       -1.36431200      -0.60900600       0.09043500
C       -2.54275800      -0.14292300      -0.29811400
O       -1.23557000      -1.44312300       1.14983900
H        2.46640900      -0.99434300      -0.85509100
H        2.31229400       0.78115800      -0.87542500
H        2.94583600      -0.03796200       0.57053800
H        0.14925800      -1.17729100      -1.30947200
H       -0.16454900       0.57309300      -1.24064600
H        0.42678700       2.28122200       0.68692900
H       -3.44854500      -0.41829100       0.22414400
H       -2.61332900       0.50899200      -1.15687500
H        0.31456800       2.99946500       0.52564500
H       -0.30416600      -1.44547800       1.40086100
