16
Extracted from Q-Chem output
C      -1.673405      0.723415      0.781388
C      -0.938365      0.087298     -0.376269
C      -0.309496     -1.150761     -0.229793
C       1.757107     -1.056518     -0.008266
C       1.990095      0.267882     -0.201612
C       1.423413      1.368216     -0.432221
H      -2.670005      0.289936      0.905282
H      -1.799469      1.798515      0.640227
H      -1.128022      0.574778      1.715909
H      -1.323655      0.321968     -1.365544
H       0.212117      0.990388     -0.493183
H      -0.422246     -1.669101      0.715931
H      -0.257914     -1.800659     -1.094108
H       1.871553     -1.451548      0.996056
H       2.052942     -1.749459     -0.789060
H       1.639703      2.410667     -0.576152
