17
Extracted from Q-Chem output
C      -0.964170      0.477085     -0.241413
C      -0.547848     -0.949444     -0.597269
O       0.045641     -1.017260     -1.890093
C       0.546798     -1.302932      0.427827
C       0.923482      0.008785      1.136763
C       0.327243      1.111658      0.271405
O       0.144094      2.283273      1.042690
H      -1.688259      0.465490      0.579487
H      -0.108048      3.001062      0.460218
H      -1.417135      1.004902     -1.085028
H      -1.392151     -1.645325     -0.546874
H      -0.621274     -0.795908     -2.542691
H       0.197376     -2.054486      1.135989
H       1.388688     -1.735596     -0.112786
H       1.996920      0.128843      1.280906
H       0.451567      0.073518      2.120667
H       0.992937      1.317109     -0.576100
