10
smiles: [C:4](#[N+:5][N-:6][H:10])[H:9].[N:1]([C:2]#[N:3])([H:7])[H:8]
N       -1.68040200      -0.44555300      -0.51842500
C       -0.88713400      -1.44363600      -0.10767100
N       -0.19607000      -2.31128500       0.20069000
C        2.20710200       0.27826800      -0.30078200
N        1.28708200       0.91668300       0.07967100
N        0.29804400       1.62167400       0.28090100
H       -1.35258400       0.48120000      -0.29951800
H       -2.66386500      -0.58221200      -0.34975900
H        2.56999000      -0.69302700      -0.01425100
H        0.50107000       2.27354700       1.03790600
