10
Extracted from Q-Chem output
N      -1.916016     -0.406851     -0.294693
C      -0.633167     -0.779015     -0.265275
N       0.345737     -1.412937     -0.324937
C       1.966296     -0.261297     -0.055758
N       1.480740      0.804685      0.198834
N       0.315565      1.301052      0.296051
H      -2.102096      0.493054      0.110310
H      -2.581485     -1.132349     -0.081830
H       2.775271     -0.911122      0.203506
H       0.359066      2.312505      0.215656
