13
Extracted from Q-Chem output
C       2.163350     -0.171024     -0.240044
O       0.988331      0.552408     -0.562995
C      -0.163699      0.016609     -0.118437
C      -1.944039      0.385013      1.293328
O      -2.400122      0.121536      0.029229
C      -1.411007      0.349195     -0.893381
O      -1.574374      0.705170     -2.010692
H       2.317676     -0.203499      0.842393
H       2.992946      0.353865     -0.706907
H       2.109763     -1.190182     -0.634823
H      -0.126252     -1.059469      0.082742
H      -0.624281      0.553089      0.980210
H      -2.185843     -0.518667      1.890171
