14
Extracted from Q-Chem output
C      -1.923543      0.691649     -0.289301
C      -0.506201      0.300092     -0.045027
C       0.493311      1.096713      0.382793
N       1.669998      0.333408      0.582980
C       1.399272     -0.929861      0.225523
O       2.191802     -1.873258     -0.156188
C       0.027483     -1.062555     -0.126424
H      -2.215714      0.467052     -1.317454
H      -2.078159      1.756505     -0.113324
H      -2.600189      0.138172      0.366697
H       0.494545      2.154415      0.593391
H       2.601131      0.711947      0.568173
H      -0.536247     -1.925943      0.210104
H       1.031133     -1.863933     -0.843705
