15
Extracted from Q-Chem output
O      -0.976920     -0.216786      1.306210
C      -0.058455     -0.017793      0.250027
C      -1.160327      0.072981     -0.803648
C      -2.089782     -0.163588      0.392380
C       1.244292     -0.715939      0.282566
C       2.015835      0.208913     -0.592003
C       1.166662      0.771793      0.493370
H      -1.148835     -0.716297     -1.552416
H      -1.255195      1.044868     -1.283661
H      -2.640971     -1.106422      0.384711
H      -2.768344      0.655502      0.639499
H       1.580747     -1.490177      0.952059
H       1.723736      0.341548     -1.632280
H       3.087252      0.242238     -0.426659
H       1.433958      1.361761      1.354466
