10
Extracted from Q-Chem output
N       1.546903     -0.130074      0.501198
C       0.190825      0.134923      0.220343
C      -0.247362      1.506001     -0.055249
O      -1.374005      1.817831     -0.354118
C      -1.643502     -1.505473      0.494198
N      -0.717294     -0.776809      0.263779
H       2.094920     -0.374720     -0.311192
H       1.673053     -0.825202      1.221406
H       0.566722      2.248946      0.040760
H      -2.116691     -2.115494     -0.271979
