10
Extracted from Q-Chem output
N       1.728621     -0.094568      0.428448
C       0.346129      0.009085      0.218224
C      -0.344680      1.260494      0.019059
O      -1.554573      1.316120     -0.138655
C      -1.715695     -1.131425      0.310801
N      -0.525534     -0.973376      0.263206
H       2.221723     -0.577932     -0.306702
H       1.980325     -0.480501      1.326116
H       0.282768      2.163479      0.043639
H      -2.429081     -1.498817     -0.413906
