17
smiles: [C:1](=[C:2]([O:3][C:4]([C:5]1([H:14])[C:6]([H:16])=[C:7]1[H:17])([H:12])[H:13])[H:11])([H:9])[H:10].[H:8][H:15]
C       -2.40097200      -0.55169000      -0.47243800
C       -1.31516800       0.10440700      -0.85173300
O       -0.58993000       0.87225800      -0.00939800
C        0.68147200       1.27616200      -0.47635400
C        1.75558400       0.21987000      -0.27625600
C        1.71533500      -0.73311700       0.87298900
C        1.45036700      -1.24502100      -0.27749800
H       -0.97156100       0.09207500       3.24423500
H       -2.96757700      -1.11341700      -1.20026100
H       -2.74222500      -0.53058500       0.55417600
H       -0.96014400       0.08455000      -1.88132800
H        0.61913600       1.55454000      -1.53664700
H        0.93514300       2.17651100       0.08742200
H        2.72415600       0.56146000      -0.65051100
H       -0.87014900       0.24675300       2.52293400
H        1.82039700      -0.85205900       1.93672100
H        1.17073500      -2.10019100      -0.86688600
