17
Extracted from Q-Chem output
C      -2.052084     -0.529953      0.130169
C      -1.068704     -0.020960     -0.671074
O      -0.659543      1.237662     -0.365084
C       0.707158      1.502110     -0.592637
C       1.543992      0.323302     -0.129064
C       1.128698     -0.551577      1.021343
C       0.896855     -1.000910     -0.215650
H      -1.084808     -0.547712      1.512398
H      -2.504827     -1.480158     -0.122958
H      -2.626552      0.141038      0.753837
H      -0.852178     -0.402010     -1.663573
H       0.892287      1.669615     -1.662844
H       0.930229      2.425925     -0.056835
H       2.605361      0.440042     -0.357060
H      -0.281472     -0.356959      1.724862
H       1.587052     -0.893220      1.933760
H       0.928827     -1.906437     -0.797831
