16
Extracted from Q-Chem output
C       1.175465      1.037831      0.901380
C       0.108679      0.149632      0.376824
C       0.816017     -0.585173     -1.460156
C      -0.988957     -0.364116      1.264799
O      -1.926289     -0.880884      0.314450
C      -1.678035     -0.186324     -0.849947
N      -0.509872      0.386755     -0.849716
H       1.770752      1.475439      0.099790
H       1.846089      0.499393      1.576491
H       0.739654      1.870492      1.473206
H       0.613632     -1.628023     -1.238425
H       0.636364     -0.355928     -2.508541
H       1.826949     -0.294346     -1.189100
H      -0.708413     -1.151529      1.964750
H      -1.462981      0.466097      1.837662
H      -2.274682     -0.425544     -1.713674
