15
Extracted from Q-Chem output
C      -2.468770     -0.288378     -0.284126
N      -1.032520     -0.370388     -0.332231
C      -0.249793     -0.005999      0.728745
N      -0.628455      0.354647      1.893394
C       1.247042     -0.058136      0.544831
O       1.493214      0.205214     -0.701754
C       2.872262      0.225829     -1.096455
H      -2.881114     -0.686314     -1.209861
H      -2.830220      0.739242     -0.156046
H      -2.856854     -0.892085      0.540306
H      -0.588294     -0.355640     -1.232756
H      -1.640577      0.450504      1.952339
H       3.000464     -0.507287     -1.891588
H       3.093690      1.223907     -1.471238
H       3.487654     -0.016005     -0.231944
