15
Extracted from Q-Chem output
C      -2.383680     -0.282375     -0.226231
N      -1.112240      0.332906     -0.499616
C      -0.083744      0.313503      0.391839
N      -0.063441     -0.148616      1.581482
C       1.181367      1.005216     -0.104573
O       1.362133      0.843061     -1.381235
C       2.598897     -0.004460     -0.566480
H      -3.067318     -0.077498     -1.048172
H      -2.820071      0.137248      0.683799
H      -2.306648     -1.369063     -0.099779
H      -0.848172      0.491568     -1.458080
H      -0.936399     -0.607775      1.831015
H       2.374581     -0.594408      0.328248
H       2.656594     -0.690837     -1.414155
H       3.442610      0.658697     -0.458713
