12
Extracted from Q-Chem output
O       2.252979      0.657203     -1.692814
C       1.584981      0.062832     -0.869651
C       0.584376      0.628696     -0.037730
C      -0.640739      1.418919     -0.237207
N      -0.625009      0.072487      0.328787
C      -1.358726     -0.863266      0.766175
O      -0.883971     -2.065011      1.100739
H       1.776493     -1.017994     -0.664320
H       0.074696     -2.085743      0.999645
H      -1.118844      1.477082     -1.213802
H      -0.894541      2.214646      0.457821
H      -2.421827     -0.731387      0.906298
