12
Extracted from Q-Chem output
O      -1.109585      0.741591      0.755091
C      -1.159305     -0.617523      0.291553
C       0.336107     -0.622683      0.004783
O       0.598629     -0.668731     -1.374746
C       0.310052      0.811809      0.595608
O       0.740962      1.821286     -0.227579
H       0.418443      1.631320     -1.116181
H      -1.783857     -0.729702     -0.597571
H      -1.490653     -1.305384      1.072613
H       0.935007     -1.349520      0.557808
H       1.548344     -0.665889     -1.511621
H       0.810553      0.952014      1.556629
