12
Extracted from Q-Chem output
O      -0.958626      0.832337      0.597308
C      -1.053564     -0.555291      0.123134
C       0.465171     -0.757610      0.071614
O       1.027689     -1.015673     -1.169411
C       0.639456      0.727446      0.497471
O       0.767693      1.574514     -0.500236
H      -0.544808      1.490076     -0.285015
H      -1.561694     -0.608070     -0.838832
H      -1.583887     -1.142331      0.869646
H       0.833458     -1.486979      0.792777
H       1.120661     -0.148832     -1.596057
H       1.092632      0.972269      1.463464
