13
Extracted from Q-Chem output
C      -2.195624      0.707527     -0.069065
O      -1.387900     -0.442991      0.116508
C      -0.059973     -0.256433     -0.015686
N       0.434474      0.879032     -0.285348
N       1.788808      0.988683     -0.480718
C       0.708750     -1.452178      0.186915
C       1.423998     -2.398925      0.350951
H      -3.220988      0.370330      0.063650
H      -1.951205      1.477490      0.665705
H      -2.057425      1.124065     -1.068768
H       2.074830      1.929825     -0.265196
H       2.339194      0.306337      0.030927
H       2.039795     -3.256000      0.492863
