13
Extracted from Q-Chem output
C       0.760461      0.389059     -1.094563
N       0.762070      0.714293      0.320208
C      -0.563897      1.059569      0.824086
C      -0.061729     -0.323968      0.936181
C      -0.492715     -1.258600     -0.174287
O      -0.319495     -0.493420     -1.351116
H       1.717126     -0.092775     -1.327283
H       0.629525      1.276044     -1.716027
H      -1.539018     -1.562635     -0.119120
H      -0.555921      1.705578      1.692634
H      -1.351214      1.248730      0.101286
H       0.270232     -0.736463      1.880891
H       0.139362     -2.156337     -0.183960
