12
Extracted from Q-Chem output
C      -2.203107      0.125109      0.042474
C      -0.813898     -0.450572      0.163087
C       0.297861      0.501732     -0.137441
C       1.549862      0.131539     -0.094335
C       2.782322     -0.259604     -0.045688
O      -0.616521     -1.597565      0.477329
H      -2.315829      0.976134      0.718579
H      -2.941952     -0.636141      0.280461
H      -2.365922      0.495074     -0.972881
H       0.049122      1.524721     -0.400916
H       3.349558     -0.195183      0.875141
H       3.267677     -0.672120     -0.922136
