12
Extracted from Q-Chem output
C      -1.844811     -0.060988      0.008366
C      -0.368309      0.055907     -0.055068
C       0.480917      1.104653      0.036761
C       1.850588      0.656037     -0.152696
C       1.641821     -0.734910     -0.223602
O       0.310333     -1.104985     -0.208482
H      -2.294410      0.922639      0.128701
H      -2.142325     -0.692126      0.847665
H      -2.231459     -0.517143     -0.904596
H       0.176708      2.129902      0.185285
H       2.101757     -0.272482      0.835380
H       2.319641     -1.526720     -0.511451
