20
Extracted from Q-Chem output
C      -1.115790      1.835979      0.666989
C      -0.410833      0.507062      0.742674
N      -0.027118     -0.203885     -0.505745
C      -0.409155     -1.609987     -0.622709
C       1.032564      0.330323      0.496614
C       1.716355     -0.755289      1.285435
C      -0.088701      0.489561     -1.788127
H      -2.130502      1.751874      0.267489
H      -1.191744      2.234768      1.680648
H      -0.546682      2.553644      0.078557
H      -0.935262     -0.197773      1.401263
H       0.297590     -2.118459     -1.281031
H      -0.390799     -2.089645      0.350598
H      -1.413816     -1.694561     -1.043173
H       2.261320     -0.266174      2.095817
H       1.069034     -1.515151      1.760098
H       2.467605     -1.275325      0.685577
H       0.316543      1.487687     -1.664505
H      -1.116329      0.527059     -2.161667
H       0.536332     -0.050525     -2.500780
