14
smiles: [C:1](/[C:2](=[C:3](/[N:4]([H:13])[H:14])[C:5]#[N:6])[H:11])([H:7])([H:8])[H:9].[H:10][H:12]
C       -1.81691000       0.69240600      -0.55531800
C       -0.57908600      -0.13610600      -0.64532000
C        0.63240100       0.21501000      -0.20745600
N        1.76815600      -0.60105100      -0.19934200
C        0.84222000       1.51179300       0.38651800
N        1.03432600       2.54809300       0.84272200
H       -2.24640200       0.85444200      -1.54703800
H       -1.62537600       1.66636300      -0.10487400
H       -2.57857600       0.18664500       0.04376700
H        0.21098900      -2.43514700       2.23078600
H       -0.67475600      -1.12137300      -1.09446800
H        0.66648600      -2.00534400       1.82809300
H        1.69244200      -1.41057400      -0.79376300
H        2.63672600      -0.11102700      -0.34063000
