14
Extracted from Q-Chem output
C      -1.747345      0.292676     -0.132988
C      -0.512005     -0.563031     -0.053060
C       0.811321      0.076986     -0.112215
N       1.912529     -0.715567     -0.538312
C       0.942027      1.404653      0.334560
N       1.049943      2.492897      0.716055
H      -1.802295      0.672276     -1.154906
H      -1.676343      1.150151      0.534549
H      -2.649946     -0.274201      0.092398
H      -0.809513     -1.217817      1.180022
H      -0.521571     -1.496852     -0.605836
H       0.052950     -0.704497      1.042456
H       2.228361     -0.488049     -1.471147
H       2.704034     -0.679180      0.087282
