8
Extracted from Q-Chem output
C      -1.025649     -0.201101      0.279770
C       0.196678      0.125398     -0.124119
O       0.534202      1.081250     -1.018468
C       1.356085     -0.560754      0.392899
N       2.264078     -1.119314      0.816173
H      -1.900945      0.307349     -0.105331
H      -0.261633      1.515355     -1.337593
H      -1.165674     -0.987519      1.005326
