8
Extracted from Q-Chem output
C      -0.946242     -0.223468      0.095885
C       0.277230      0.621213     -0.074801
O       0.296167      1.813521     -0.175810
C       1.554950     -0.138357     -0.115526
N       2.528632     -0.744042     -0.144836
H      -1.830095      0.409664      0.110863
H      -1.009753     -0.945865     -0.720841
H      -0.870889     -0.792665      1.025067
