11
Extracted from Q-Chem output
N       2.896594      0.655644     -0.249843
C       1.955888      0.006192     -0.160417
C       0.738190     -0.795622     -0.047567
C      -0.282741      0.014474      0.724568
C      -1.121390      0.883360     -0.115201
O      -1.857492     -0.342634      0.064134
H       0.982473     -1.723319      0.470811
H       0.392870     -1.042361     -1.057968
H      -1.523969     -0.515864      1.102965
H      -1.595460      1.757256      0.322328
H      -0.865604      1.001483     -1.165844
