14
Extracted from Q-Chem output
C      -1.104717      0.341473     -1.078377
C      -0.173171      0.152073     -0.044003
O       0.405348      1.874936      0.015826
C      -0.075734     -0.462258      1.297478
C       0.986889     -0.711942      0.250897
O       1.026989     -1.981847     -0.309786
H      -0.842068     -0.025962     -2.064856
H      -0.453821      1.643247     -0.776437
H      -2.159162      0.313751     -0.827844
H       0.022186      2.327142      0.778031
H       0.205582      0.122884      2.161973
H      -0.779687     -1.264217      1.484859
H       1.947302     -0.233866      0.412520
H       1.157405     -1.898719     -1.256887
