11
Extracted from Q-Chem output
O       2.543474      1.037580     -0.305063
C       1.574951      0.379589     -0.560608
C      -0.483130     -0.182367      0.692278
C       0.151117      0.791728     -0.258692
C      -1.430696     -1.046703      0.365181
H       1.674323     -0.617216     -1.040398
H      -0.099024     -0.169443      1.708917
H       0.166684      1.802406      0.152573
H      -0.401531      0.797969     -1.203488
H      -1.837464     -1.739307      1.091639
H      -1.841554     -1.088194     -0.638332
