10
Extracted from Q-Chem output
O       2.120988     -0.041106     -0.223222
C       0.800274     -0.154572     -0.127108
C      -0.210403      0.859820      0.286278
C      -1.134145     -0.353561      0.004605
N       0.061001     -1.165913     -0.367263
H      -0.149039      1.196568      1.320519
H      -0.318077      1.716457     -0.378119
H      -1.658728     -0.751782      0.873577
H      -1.833471     -0.226681     -0.822285
H       2.467429     -0.891709     -0.520362
