10
Extracted from Q-Chem output
O       2.212684     -0.052904     -0.239737
C       0.963602      0.063605     -0.084586
C      -0.228907      0.918283      0.293239
C      -1.004338     -0.395886     -0.012584
N       0.316742     -1.024297     -0.344134
H      -0.243079      1.254343      1.328192
H      -0.423066      1.754068     -0.375986
H      -1.496526     -0.856722      0.842995
H      -1.684351     -0.351719     -0.862471
H       1.602554     -1.283411     -0.540373
