15
Extracted from Q-Chem output
C       2.236970     -0.038905     -0.373251
C       0.796325      0.351849     -0.670642
C      -0.169398     -0.129319      0.403564
C      -1.587320      0.365787      0.180804
O      -1.835347      1.436690     -0.330391
N      -2.569848     -0.465131      0.620797
H       2.909355      0.302510     -1.161813
H       2.349371     -1.123279     -0.290390
H       2.580172      0.400242      0.566987
H       0.702724      1.435313     -0.759360
H       0.488584     -0.058107     -1.636790
H      -0.153436     -1.221146      0.476986
H       0.145117      0.252134      1.381673
H      -3.523536     -0.159599      0.544633
H      -2.369734     -1.349040      1.047192
