15
Extracted from Q-Chem output
C      -0.562366      1.341532     -0.386795
C      -0.400785      0.012726      0.342834
C      -0.929308     -1.156100     -0.478301
C       1.010581     -0.195994      0.855894
C       2.052747     -0.666718     -0.523968
N       2.414427      0.413396     -0.201601
H      -0.192764      2.177511      0.210095
H      -1.614605      1.523448     -0.611219
H      -0.011420      1.335563     -1.328790
H      -0.987797      0.065140      1.270747
H      -0.399715     -1.236238     -1.428645
H      -1.991159     -1.016791     -0.689588
H      -0.811250     -2.103948      0.050599
H       1.163908     -1.140704      1.370414
H       1.316760      0.608068      1.520670
