12
Extracted from Q-Chem output
O       2.363791     -0.662523      0.788988
N       1.610063      0.493548      0.530477
C       0.440528      0.166330      0.170606
C      -0.675392      1.068553     -0.287465
N      -1.560455     -0.095127     -0.529491
C      -0.326774     -1.051756      0.015389
H       3.201936     -0.305539      1.086143
H      -0.447630      1.572165     -1.226712
H      -1.079975      1.786075      0.425787
H      -1.921284     -0.273349     -1.454233
H      -0.062934     -1.888272     -0.618949
H      -1.613009     -0.771955      0.387882
