10
Extracted from Q-Chem output
N       1.706318      0.165111     -0.425246
C       0.396556      0.023913     -0.114498
N      -0.526023      0.955890      0.004192
C      -1.820738      0.410423      0.288891
C      -1.521624     -0.896484      0.314532
O      -0.111632     -1.147413      0.060391
H       2.136055      1.056908     -0.259765
H       2.287858     -0.639224     -0.268936
H      -0.352301      1.938471     -0.110856
H      -2.071090     -1.805999      0.474481
