10
Extracted from Q-Chem output
N       1.793691      0.079960     -0.411898
C       0.492109      0.057656     -0.067366
N      -0.273028      1.088833      0.200117
C      -1.654395      0.539174      0.411192
C      -1.467789     -0.781331      0.295540
O      -0.109338     -1.094668      0.067724
H       2.281910      0.946927     -0.283910
H       2.321008     -0.770959     -0.340579
H      -1.196219      1.619376     -0.255327
H      -2.107939     -1.642861      0.363795
