12
Extracted from Q-Chem output
C       1.297328     -0.957323      0.030214
C       0.045925     -0.172617     -0.237568
C      -0.502273      0.669444      0.602333
C      -1.072331      1.511635      1.407068
C      -0.630380     -0.351537     -1.544058
O      -0.226743     -1.093666     -2.400643
H       1.687800     -0.747205      1.024002
H       2.057526     -0.714546     -0.713834
H       1.094616     -2.025669     -0.058782
H      -0.804430      2.562016      1.395626
H      -1.825265      1.185693      2.115425
H      -1.548063      0.251869     -1.683612
