13
Extracted from Q-Chem output
C      -1.725766     -0.471350     -0.038496
C      -0.519218      0.383050     -0.044685
C       0.518817      0.428415     -1.064725
C       1.366204     -0.039017     -0.085287
O       2.486849     -0.717935     -0.203880
N       0.844310      0.087521      1.192580
N      -0.224234      1.141267      1.070896
H      -2.039091     -0.677621      0.982366
H      -1.575199     -1.388089     -0.605288
H      -2.519218      0.104350     -0.527923
H       0.457992      0.081236     -2.081266
H       2.779008     -0.937121      0.692966
H       0.263443      1.990845      0.779531
