18
smiles: [C:1]([N:2]([C:3][O:4][H:15])[H:11])([H:8])([H:9])[H:10].[C:5](=[C:6]([H:13])[H:14])([C:7]([H:16])([H:17])[H:18])[H:12]
C        3.41004600       0.51872700       0.35183700
N        2.30205300       1.03167800      -0.44371400
C        1.06042200       0.57830500      -0.46828500
O        0.97874100      -0.46360000       0.38025500
C       -2.14480900      -0.61262900      -0.49534200
C       -2.09688000      -1.69857300       0.26048700
C       -2.55880100       0.74491100      -0.02440700
H        3.18860500       0.59203300       1.41702500
H        4.30146700       1.10386100       0.13388300
H        3.60482100      -0.52746500       0.11470000
H        2.47994700       1.81614100      -1.04328100
H       -1.86665400      -0.69225500      -1.54394400
H       -1.78613900      -2.65542100      -0.14102400
H       -2.36508000      -1.66937900       1.31188600
H        0.07329000      -0.77354900       0.34541600
H       -3.43321400       1.09947100      -0.57638700
H       -2.80382200       0.74016600       1.03867800
H       -1.76261100       1.47514300      -0.19037400
