18
Extracted from Q-Chem output
C       3.014439      0.519824      0.197437
N       1.696954      0.672929     -0.402468
C       0.630956     -0.040703     -0.083892
O       0.809670     -0.917828      0.823682
C      -1.498760     -0.402425     -0.477177
C      -1.704046     -1.441829      0.408452
C      -2.053877      0.973033     -0.233937
H       2.977663      0.734805      1.266127
H       3.707661      1.209073     -0.281721
H       3.376171     -0.500324      0.065692
H       1.576994      1.371664     -1.111971
H      -1.319032     -0.642388     -1.519364
H      -1.712739     -2.464171      0.047579
H      -2.226422     -1.250651      1.341011
H      -0.185662     -1.348350      0.885253
H      -3.105500      0.998452     -0.535910
H      -2.009281      1.232007      0.825249
H      -1.520743      1.738589     -0.798137
