14
Extracted from Q-Chem output
O       1.427213      0.901141     -1.032336
C       0.650591      0.221751     -0.041671
C       2.012529      0.641991      0.247539
C       0.202699     -1.160111     -0.348481
C      -1.114153     -1.233974     -0.237692
C      -1.686406      0.084900      0.191794
N      -0.498263      0.876465      0.496861
H       2.164087      1.518317      0.872802
H       2.829912     -0.075189      0.247860
H       0.882706     -1.941271     -0.656226
H      -1.726188     -2.105517     -0.426073
H      -2.324529     -0.016857      1.075239
H      -2.302019      0.516455     -0.608421
H      -0.551564      1.846465      0.227783
