16
smiles: [C:1](=[C:2]([O:3][H:12])[H:11])([H:8])[H:10].[C:4](=[C:5]([O:6][H:9])[N:7]([H:15])[H:16])([H:13])[H:14]
C       -1.54656100       0.00987200      -1.69732600
C       -2.10874300      -0.10734400      -0.50298800
O       -1.58765900       0.28896300       0.68084100
C        1.50171300       0.83849500       0.92185500
C        1.59546300      -0.12486100       0.00013200
O        2.14987100       0.04287000      -1.22625300
N        1.19816000      -1.43717700       0.14995400
H       -0.56787800       0.45703500      -1.83351300
H        2.42251900       0.95789900      -1.31804400
H       -2.06594800      -0.34787700      -2.57393600
H       -3.08639400      -0.55385100      -0.36271200
H       -0.72272300       0.68148400       0.53441600
H        1.03617500       0.64743700       1.87705800
H        1.91695900       1.82051800       0.74438100
H        0.93026600      -1.88627800      -0.71016300
H        0.55824400      -1.60260200       0.90661900
