16
Extracted from Q-Chem output
C      -1.183917     -0.021853     -1.475661
C      -0.994584      0.945170     -0.483247
O      -1.930461      1.247494      0.431379
C       0.539854     -0.009809      1.014547
C       1.201157     -0.734850      0.052008
O       0.586839     -1.655777     -0.614414
N       2.443546     -0.366280     -0.425912
H      -2.174151     -0.469044     -1.534245
H      -0.350125     -1.045460     -1.068187
H      -0.726827      0.193253     -2.435506
H      -0.276217      1.743676     -0.598888
H      -2.638298      0.597996      0.389353
H       1.024925      0.809360      1.530921
H      -0.306823     -0.470441      1.498275
H       2.858503     -1.037198     -1.049454
H       3.078895      0.057165      0.226995
