16
Extracted from Q-Chem output
C      -1.994109      0.221701      0.412672
C      -0.601253     -0.280506      0.121787
O      -0.358448     -1.530654      0.247624
C       0.166438      0.408040     -1.005282
C       1.657163      0.010563     -0.863871
O       1.851768     -0.628284      0.414296
H      -2.374579     -0.247114      1.318073
H      -2.028337      1.306741      0.513084
H      -2.637556     -0.072441     -0.420930
H       0.108920      0.418826      1.219540
H       1.076591     -1.358592      0.367905
H       0.028581      1.489363     -0.967627
H      -0.234262      0.041406     -1.952539
H       2.317107      0.875723     -0.897701
H       1.960969     -0.694448     -1.635562
H       1.029099      0.055752      1.057076
