8
smiles: [N:1](=[C:2]=[O:3])[H:5].[N:4]([H:6])([H:7])[H:8]
N        1.51293200      -0.28059200       0.10030300
C        1.18059000       0.75939300       0.61616200
O        0.74312100       1.74161600       1.05107400
N       -1.50468500      -0.15596900      -1.08849000
H        2.40772300      -0.72268200       0.20038200
H       -0.64822200      -0.69313100      -1.07256600
H       -2.24891000      -0.75997200      -0.76669900
H       -1.69885700       0.07865700      -2.05268900
