14
Extracted from Q-Chem output
C      -1.512548      0.213873      0.145268
C      -0.452389     -0.481021      0.750642
C       0.369594     -1.153565     -0.329237
O       0.611083     -0.016357     -1.198195
C       1.254792      1.108179     -0.143570
O       1.027546      0.620082      1.031067
H      -2.169062      0.835939      0.737345
H      -0.407175      0.432027     -0.981434
H      -1.998107     -0.303984     -0.681511
H      -0.391006     -0.808211      1.781063
H       1.308590     -1.575536      0.014243
H      -0.198683     -1.875952     -0.915505
H       2.301784      1.174807     -0.456696
H       0.660751      1.972222     -0.476050
