10
Extracted from Q-Chem output
C      -1.635274      0.295334     -0.348841
O      -1.294101      0.183502      0.847232
C       0.502045     -0.163595      1.004302
O       0.835100     -0.282410      2.088158
C       0.869294     -0.158914     -0.433923
C       2.101612     -0.366933     -0.712373
H      -1.735536      1.285295     -0.809954
H      -0.092406      0.046307     -1.039728
H      -2.070650     -0.556259     -0.885629
H       2.622052     -0.412216     -1.657822
