14
Extracted from Q-Chem output
C      -1.150586     -1.241577     -0.038108
C      -0.275648     -0.027792     -0.306265
C       0.433153      2.198996      0.650583
N       0.964308      3.196181      0.451674
C      -0.263037      0.903304      0.882089
O      -0.747424      0.685268      1.955008
C       1.163523     -0.406896     -0.676722
H      -0.754762     -1.828874      0.791439
H      -2.169339     -0.951337      0.218512
H      -1.184473     -1.876496     -0.924258
H      -0.691496      0.558873     -1.135252
H       1.628846     -0.981818      0.126612
H       1.781269      0.470316     -0.874842
H       1.159416     -1.022922     -1.576011
