14
Extracted from Q-Chem output
C      -1.712055     -0.974562      0.169115
C      -0.745572     -0.116576     -0.440574
C       0.214592      1.783645      0.299410
N       0.070338      2.923605      0.275385
C       0.412288      0.265643      0.403044
O       0.459855     -0.203897      1.596208
C       1.688468     -0.063750     -0.481326
H      -1.888432     -0.554729      1.177583
H      -2.603898     -1.208346     -0.401113
H      -1.147544     -1.874594      0.475649
H      -0.812307      0.230183     -1.468890
H       1.776629     -1.146797     -0.555222
H       2.526338      0.323181      0.092571
H       1.667421      0.394488     -1.470069
