14
smiles: [C-:3]([N+:4]1=[C:7]([H:14])[C:6]([H:12])([H:13])[C:5]1([H:10])[H:11])([H:8])[H:9].[O+:1]#[C-:2]
O        1.41586000       2.49694600      -0.36106100
C        1.78071900       1.66803200      -1.02588200
C        1.47848600      -1.08718400       0.50586400
N        0.31381500      -0.62725800       0.10187400
C       -0.76696200      -0.06085300       0.93152800
C       -1.58796300       0.14826600      -0.36190700
C       -0.38442200      -0.45301500      -1.02067700
H        2.17549100      -1.46974000      -0.22205700
H        1.69540900      -1.05784200       1.56024800
H       -0.44308900       0.84065400       1.44969800
H       -1.15544500      -0.79304400       1.63802700
H       -1.81167500       1.19499500      -0.58842600
H       -2.51942100      -0.42425900      -0.40088600
H       -0.07354900      -0.70627200      -2.02154900
