14
Extracted from Q-Chem output
O       2.299731      1.311238     -1.777122
N       1.951850      0.267726     -0.933343
C       0.726171     -0.024792     -1.032784
C       0.149181     -1.129683     -0.211700
C      -0.936847     -0.679817      0.729293
C      -1.115311      0.574518      1.123301
O      -2.067653      1.021492      1.977730
H       3.236197      1.429283     -1.605899
H       0.961668     -1.620355      0.330734
H      -0.266824     -1.877864     -0.895318
H      -1.597533     -1.454105      1.112675
H       0.080366      0.530730     -1.715156
H      -0.484372      1.389638      0.787258
H      -2.608511      0.283316      2.270528
