15
Extracted from Q-Chem output
C       2.588861     -0.160278      0.741941
N       1.338671      0.222006      0.133369
C       0.588192     -0.687148     -0.307520
C      -0.735704     -0.417066     -0.944184
C      -1.734140      0.458633     -0.270452
N      -2.512546      0.497510      0.837099
C      -1.159025      0.986785     -1.295228
H       2.763458     -1.245944      0.741112
H       3.412002      0.329312      0.216748
H       2.611870      0.198110      1.773673
H       0.882473     -1.748180     -0.245705
H      -1.098536     -1.258695     -1.540132
H      -2.858102     -0.380846      1.179529
H      -3.152714      1.267927      0.919557
H      -0.917023      1.826970     -1.916474
