15
Extracted from Q-Chem output
C       2.770618     -0.109974      0.153627
N       1.394025      0.151120     -0.192159
C       0.544040     -0.772838      0.002205
C      -0.885133     -0.660615     -0.160820
C      -1.656489      0.481861     -0.037975
N      -3.014764      0.433100      0.147476
C      -1.008955      1.651716     -0.432530
H       2.947919     -1.136599      0.501492
H       3.405518      0.088214     -0.712373
H       3.079935      0.581045      0.941454
H       0.875849     -1.769086      0.329797
H      -1.400418     -1.583068     -0.420320
H      -3.456506     -0.469286      0.097125
H      -3.536902      1.195689     -0.249744
H      -0.040999      1.807819      0.056080
