16
Extracted from Q-Chem output
C      -1.141195      1.333594     -0.203731
C       0.142082      0.582753     -0.052873
C       0.331892     -0.728515      0.009552
C      -0.968293     -1.860623      0.390194
C       0.786671     -1.938553      0.256165
C       2.487392      1.025411     -0.500366
N       1.328717      1.385185     -0.019612
H      -2.007590      0.692483     -0.052922
H      -1.226432      1.790396     -1.193877
H      -1.206763      2.139398      0.535024
H      -1.007688     -2.916369      0.126646
H      -1.643678     -1.371954     -0.320067
H      -1.269646     -1.702916      1.418273
H       1.069852     -2.566378     -0.586519
H       3.184209      1.848537     -0.259681
H       1.178446      2.273427      0.455111
