16
Extracted from Q-Chem output
O      -2.030590      0.286646      0.645649
C      -0.932787      0.221956     -0.210533
C      -0.316581     -1.183141     -0.256602
C       1.172387     -0.910976      0.065943
C       1.279650      0.533603      0.621978
C       0.139728      1.186626     -0.112963
H      -2.605893     -0.457155      0.454498
H      -1.522890      1.247808     -1.094068
H      -0.772346     -1.851383      0.479204
H      -0.435826     -1.637606     -1.240982
H       1.773219     -0.987195     -0.840692
H       1.550605     -1.643650      0.778187
H       1.112705      0.532892      1.702508
H       2.255732      0.977166      0.427394
H      -1.251852      1.986026     -0.529686
H       0.396215      1.767095     -0.983014
