9
Extracted from Q-Chem output
N      -1.387285     -0.592745      0.123625
C      -0.682965      0.608917     -0.225262
C       0.716495      0.638760      0.338800
C       0.949428     -0.525567     -0.258203
N      -0.357101     -0.624114     -0.940657
H      -0.990048     -0.983344      0.976389
H      -1.232566      1.416960     -0.690285
H       1.259421      1.314523      0.981179
H       1.726667     -1.275007     -0.305339
