11
Extracted from Q-Chem output
C       1.085320     -0.596328     -0.243421
N       0.738463      0.552969      0.332443
C      -1.283775      0.971366      0.198183
C      -1.648580     -0.225877     -0.313511
N      -1.361971     -1.300811     -0.748443
H      -0.154465     -1.272984     -0.614642
H       1.424746     -1.432192      0.368567
H       1.494849     -0.533630     -1.250270
H       0.676365      0.421888      1.338817
H      -1.522269      1.188140      1.232386
H      -1.265644      1.820061     -0.472381
