15
Extracted from Q-Chem output
O      -1.566895     -0.447910      1.513064
C      -1.026687      0.247594      0.501370
C      -0.678787     -0.441709     -0.789084
C       0.154738      0.393494     -1.713268
C       0.822770     -0.470613     -0.695468
C       0.966395      0.191126      0.647688
C       1.742435     -0.055846      1.705850
H      -1.138288     -1.307927      1.581563
H       0.461385      1.204186      0.654418
H      -1.513644      1.222070      0.453713
H      -1.325943     -1.227745     -1.161370
H       0.182088      0.061145     -2.742456
H       0.174352      1.471274     -1.589116
H       1.454257     -1.304006     -0.969506
H       1.401595      0.450212      2.618413
