16
Extracted from Q-Chem output
C      -1.604968      0.819075     -0.809719
C      -0.843739     -0.210970     -0.004359
C      -1.235880     -0.252413      1.456277
C       1.377515     -0.757446     -0.528681
O       0.565439      0.140305     -0.070132
C       2.762474     -0.196309     -0.498011
H      -1.268952      0.822241     -1.847292
H      -1.462414      1.818364     -0.393613
H      -2.671523      0.589179     -0.794414
H      -0.923535     -1.201119     -0.457637
H      -1.080812      0.720995      1.926111
H      -0.644895     -0.996516      1.991547
H      -2.290350     -0.515987      1.552603
H       3.370684     -0.863759      0.119562
H       3.177702     -0.278152     -1.506197
H       2.840427      0.833090     -0.133929
