16
Extracted from Q-Chem output
C      -1.320083      0.762806     -0.820557
C      -0.559453     -0.158253      0.118113
C      -1.229169     -0.425925      1.430929
C       1.289316     -0.130662      0.446404
O       0.748534      1.039043      0.414552
C       2.329141     -0.333978     -0.632787
H      -0.741235      0.997216     -1.712360
H      -1.599532      1.692959     -0.328034
H      -2.229999      0.240165     -1.129312
H      -0.305969     -1.067379     -0.436870
H      -1.196717      0.470126      2.050018
H      -0.750392     -1.242577      1.963742
H      -2.280246     -0.668035      1.245900
H       3.283856     -0.083836     -0.158267
H       2.394262     -1.379698     -0.937466
H       2.193604      0.324889     -1.497868
