15
Extracted from Q-Chem output
C       2.239330     -0.343410     -0.793048
C       0.820610     -0.147531     -0.360364
C       0.008810     -1.093997      0.175799
C      -1.341346     -0.571977      0.497243
C      -1.262592      0.826223     -0.150457
O      -2.037177      1.790195      0.512987
C       0.172168      1.137061     -0.303132
H       2.349783     -0.110417     -1.853803
H       2.576562     -1.368406     -0.631599
H       2.894439      0.335848     -0.246152
H       0.304532     -2.121632      0.374470
H      -2.150705     -1.226092      0.163049
H      -1.472319     -0.420135      1.571622
H      -1.594966      0.725510     -1.204270
H      -1.520015      2.600721      0.498871
