15
Extracted from Q-Chem output
C       2.157237     -0.138144     -0.640403
C       0.689334     -0.126017     -0.365990
C      -0.036677     -1.075332      0.235401
C      -1.486357     -0.707099      0.350464
C      -1.506978      0.709044     -0.196271
O      -0.961977      1.659451      0.725994
C      -0.167342      1.006279     -0.774053
H       2.348196     -0.054903     -1.712566
H       2.624588     -1.053714     -0.276698
H       2.642906      0.715077     -0.162559
H       0.364574     -2.000748      0.636138
H      -2.116637     -1.367667     -0.252121
H      -1.854685     -0.761098      1.377520
H      -2.421084      1.048040     -0.678096
H      -0.285977      2.154831     -0.065962
