14
smiles: [C-:2]1([H:10])[O+:3]=[C:4]([H:12])[C:5]1([O:6][H:14])[H:13].[C:1]([H:7])([H:8])([H:9])[H:11]
C        1.38797400       1.46270000       0.69570800
C        0.18485000      -1.42710900      -0.39863000
O       -0.25115200      -1.60437300       0.81254800
C       -1.35032000      -0.72561000       0.69400700
C       -1.01785700      -0.67647900      -0.82454000
O       -0.98030000       0.45172000      -1.61719100
H        1.39894600       2.49440700       1.04415300
H        2.18720900       0.90702700       1.18385700
H        1.53741800       1.44194200      -0.38274900
H        1.21444900      -1.59805200      -0.68073400
H        0.42865400       1.00814900       0.93833700
H       -2.26387900      -1.18615100       1.07596200
H       -1.70453700      -1.41270300      -1.26575900
H       -0.67908300       1.17979100      -1.06859100
