13
Extracted from Q-Chem output
N       1.084268      0.613125      0.274338
C       1.477688      0.152748     -0.942167
O       0.723764     -0.649558     -1.580546
C      -0.442527     -1.169301     -1.097967
C      -1.026023     -0.565348      0.141597
C      -0.354530      0.772546      0.470307
H       1.685364      1.298483      0.696002
H       2.438023      0.383131     -1.375474
H      -1.063328     -1.473055     -1.927403
H      -2.102585     -0.405973      0.013250
H      -0.912430     -1.214371      1.016427
H      -0.526469      1.061967      1.506390
H      -0.753926      1.560932     -0.175843
