13
Extracted from Q-Chem output
N       1.383275      0.408502      0.370556
C       1.645824      0.090560     -0.842392
O       0.783845     -0.624860     -1.520686
C      -0.441727     -0.960891     -1.052117
C      -1.106637     -0.577573      0.237107
C      -0.832286      0.848845      0.390177
H       2.039848      1.095805      0.726014
H       2.481562      0.409780     -1.458078
H      -1.061288     -1.212375     -1.904325
H      -2.169595     -0.755797      0.044997
H      -0.820195     -1.169571      1.105676
H      -0.492607      1.295932      1.307741
H      -1.182728      1.516971     -0.385758
