15
Extracted from Q-Chem output
C       1.890400     -0.592982      1.118502
C       0.763716     -0.426732      0.152193
N      -1.233081      0.706210     -0.664593
C      -0.219888      0.475806      0.258266
C      -1.421990     -0.226067     -1.746901
C      -0.268755      1.362363      1.395218
N      -0.340741      2.065620      2.300311
H       2.852303     -0.427095      0.626429
H       1.816903      0.099246      1.957162
H       1.908292     -1.609293      1.519882
H       0.757064     -1.083382     -0.710343
H      -2.078326      1.071123     -0.260244
H      -2.297325      0.073674     -2.320397
H      -0.559757     -0.203486     -2.417538
H      -1.561342     -1.260405     -1.403842
