15
Extracted from Q-Chem output
C       1.484956     -0.886546      0.644977
C       1.002138      0.306888     -0.069449
N      -0.629296      1.517652     -1.319953
C      -0.404839      0.748288     -0.212326
C      -0.988453     -0.719128     -0.661839
C      -1.025370      1.090281      1.084224
N      -1.515900      1.380774      2.080613
H       2.511598     -0.689366      0.963165
H       0.878147     -1.129244      1.517689
H       1.535009     -1.773782     -0.001663
H       1.671275      0.787107     -0.777829
H      -1.092727      2.387639     -1.069650
H      -0.559631     -0.965754     -1.629832
H      -0.792270     -1.491303      0.078373
H      -2.054146     -0.549739     -0.765697
