14
smiles: [C:1](=[C:2]1[C:3]([H:10])([H:11])[C:4]([H:13])=[C:5]([H:14])[O:6]1)([H:7])[H:8].[H:9][H:12]
C        1.39605000       1.55238700      -0.68147300
C        0.66415700       0.47004900      -0.47771000
C       -0.81965000       0.24563700      -0.67695700
C       -0.95798200      -1.19619400      -0.27164000
C        0.23715200      -1.63656200       0.08234000
O        1.23397900      -0.70066100      -0.01467700
H        0.93377700       2.45763100      -1.04732400
H        2.45998100       1.54936100      -0.49034900
H       -0.77841100       0.44919800       2.94381300
H       -1.41253200       0.91791400      -0.05140600
H       -1.11303400       0.42512900      -1.71436900
H       -0.65132400      -0.08147200       2.43725300
H       -1.87150000      -1.76816300      -0.26794700
H        0.56210400      -2.60400700       0.43363300
