14
Extracted from Q-Chem output
C       1.168168      0.581541     -0.812187
C       0.352075      1.315911      0.225632
C      -1.043370      0.731638     -0.175210
C      -0.703262     -0.713957     -0.128001
C       0.754826     -0.672413      0.091844
O       0.879971      0.179372      1.215883
H       0.851154      0.600484     -1.855884
H       2.245435      0.693291     -0.711980
H      -0.425329     -0.523966      1.828320
H      -1.926235      0.996342      0.407028
H      -1.220814      1.058932     -1.201250
H      -1.046739     -0.985839      1.547225
H      -1.319123     -1.573247     -0.370833
H       1.316010     -1.607845      0.142601
