14
Extracted from Q-Chem output
O       1.595646     -1.312553      0.164304
C       0.857843     -0.566817      1.088143
C      -0.130152      0.499945      0.469842
C      -0.128944      0.703397     -1.025574
C      -1.366153      0.198662     -0.404677
C      -0.362336     -1.159226      1.522698
H       2.357282     -0.794682     -0.106617
H       1.511496     -0.022508      1.777892
H      -0.207969      1.391660      1.075192
H       0.459044      0.004247     -1.604674
H      -0.085324      1.735109     -1.349422
H      -2.196271      0.876782     -0.259189
H      -1.633936     -0.831663     -0.568143
H      -0.697380     -0.602003      2.410378
