17
Extracted from Q-Chem output
O       2.957125     -0.373843      1.411538
C       1.895781     -0.387182      0.562967
C      -0.598882     -0.754018     -1.102191
C      -1.668900     -0.688704      0.005285
C      -1.432804      0.832050      0.087649
C      -0.074727      0.628201     -0.642648
C       1.098807      0.636065      0.287915
H       3.046913      0.503160      1.793474
H       1.776376     -1.367465      0.118836
H       0.086126     -1.601370     -1.102713
H      -1.046102     -0.682625     -2.094593
H      -1.339543     -1.195618      0.912709
H      -2.673464     -1.030748     -0.242830
H      -2.139331      1.389424     -0.529408
H      -1.395469      1.285893      1.078823
H       0.109000      1.339847     -1.451881
H       1.295492      1.589845      0.778583
