15
Extracted from Q-Chem output
C      -1.717408      0.291710      0.330144
C      -1.174516     -0.434817     -0.725890
C       0.772457     -1.173580     -0.159133
C       1.147494      0.030765      0.375373
O       0.564829      0.508286      1.425082
C       2.012674      0.979814     -0.398153
O       2.580981      0.697847     -1.418389
H      -0.570346      0.447139      1.142182
H      -2.401954     -0.212346      1.004679
H      -1.897189      1.352064      0.183591
H      -0.841041      0.072629     -1.622472
H      -1.455777     -1.468550     -0.879242
H       0.336602     -1.921416      0.487843
H       1.231220     -1.508387     -1.080782
H       2.088242      1.983543      0.064401
