13
smiles: [H:6][H:11].[O:1]([C:2]([C:3]([C:4](=[O:5])[H:12])([H:9])[H:10])([H:7])[H:8])[H:13]
O       -0.92462600       1.34407600       0.44058300
C       -1.11633100       0.03175600      -0.03198300
C       -0.25299200      -0.27779700      -1.24566600
C        1.21986600      -0.21781600      -0.96013200
O        1.69221800       0.12156500       0.09398900
H        0.65051800      -0.15817000       3.29739500
H       -2.17027800      -0.05399400      -0.30094800
H       -0.91583200      -0.70437200       0.75613700
H       -0.45559800       0.43375500      -2.05492800
H       -0.47728900      -1.27043100      -1.65300500
H        1.01854800      -0.16696200       2.65018600
H        1.88709100      -0.50476200      -1.79792000
H       -0.02960500       1.38612500       0.79050400
