13
Extracted from Q-Chem output
O      -0.551241      0.983144      1.059543
C      -1.222851      0.160078      0.078280
C      -0.162855     -0.677795     -0.680630
C       1.200880     -0.112387     -0.303128
O       1.344455      1.144455     -0.450152
H       0.358815      0.173815      1.342256
H      -1.773491      0.821858     -0.587051
H      -1.931515     -0.462081      0.622077
H      -0.290616     -0.562229     -1.757677
H      -0.230148     -1.738834     -0.433946
H       1.129505     -0.425309      1.105947
H       2.056548     -0.782990     -0.465432
H       0.154445      1.461770      0.458060
