12
Extracted from Q-Chem output
O      -1.762555      0.892702     -0.057659
C      -1.292319     -0.364665     -0.071458
C       0.753010      0.164411     -0.992463
C       0.051475     -0.637668     -0.031980
C       1.329422      0.083271      1.456047
O       2.027096      0.676531      0.666442
H      -2.707315      0.896547     -0.219795
H      -2.041245     -1.149051      0.014103
H       1.388467     -0.311475     -1.728435
H       0.400490      1.160600     -1.212431
H       0.280491     -1.695153      0.004805
H       1.673613      0.137483      2.514005
