12
Extracted from Q-Chem output
C      -1.112489      0.948128      0.037351
C      -1.186832     -0.244164     -0.650874
O      -1.812712     -1.067784     -1.192761
C       0.823963     -1.080494     -0.722049
C       1.341084     -0.468764      0.365497
C       1.243036      0.353253      1.306890
H       0.012653      0.747344      0.947615
H      -2.007476      1.189565      0.598417
H      -0.658897      1.763781     -0.515308
H       1.146744     -0.763999     -1.709863
H       0.494550     -2.110437     -0.647541
H       1.795313      0.774878      2.124759
