15
Extracted from Q-Chem output
C      -1.841817     -0.137576      0.896598
C      -1.184019      0.107091     -0.425699
O      -0.360478      1.247115     -0.518598
C       0.966601      1.012458     -0.453748
C       1.415586     -0.249284      0.046073
O       0.549046     -0.738983      1.062289
C      -0.690007     -0.991561      0.470777
H      -1.638008      0.584599      1.675766
H      -2.833893     -0.567986      0.895203
H      -1.707667     -0.113176     -1.347200
H       1.482232      1.946447     -0.300549
H       2.429909      0.723870     -1.207635
H       1.639397     -1.057750     -0.643746
H       2.671928      0.274124     -0.347171
H      -0.864121     -2.025392      0.185424
