16
Extracted from Q-Chem output
C       1.486021     -0.964722      0.497288
C       0.478141      0.177469      0.564613
C       0.442588      1.061953     -0.710967
C      -0.930132      1.235539     -1.249548
C      -1.792877      0.508275     -0.324730
N      -1.494493     -0.935214     -0.489378
C      -0.959686     -0.270505      0.665373
H       1.467972     -1.566127      1.407879
H       2.499571     -0.579293      0.371882
H       1.281611     -1.630840     -0.345024
H       0.679553      2.107785     -0.456648
H       1.176678      0.813689     -1.483234
H       0.712106      0.794184      1.437064
H      -2.843534      0.731191     -0.195056
H      -0.800135     -1.100547     -1.213734
H      -1.384046     -0.586680      1.611728
