15
Extracted from Q-Chem output
C       2.136777     -0.780114      0.578407
C       1.094002      1.038035     -0.475528
C      -0.020583      0.305305     -0.011736
O       0.185774     -0.592703      0.861051
N      -1.273064      0.478218     -0.475084
C      -2.385111     -0.365037     -0.103416
H       2.064280     -1.458737     -0.257782
H       2.968221     -0.094790      0.511167
H       2.052237     -1.244176      1.552367
H       1.584279      1.602554      0.309600
H       1.032180      1.565415     -1.424518
H      -1.457736      1.313531     -0.997893
H      -3.096890     -0.420124     -0.928133
H      -2.009523     -1.363614      0.114007
H      -2.901758      0.002616      0.786983
