14
Extracted from Q-Chem output
C       1.768818      0.835067      0.033279
C       0.550583      0.048489      0.439891
C      -0.740827      0.382690     -0.264527
C      -1.841262     -0.516977      0.263916
O      -1.046069     -1.700701      0.028228
C      -0.019691     -0.906165     -0.549233
H       1.805596      1.798401      0.545903
H       2.684620      0.289916      0.269129
H       0.496525     -0.243012      1.485915
H       1.766949      1.033638     -1.041600
H      -0.868860      1.266071     -0.873359
H      -2.736743     -0.531446     -0.361614
H      -2.120972     -0.407458      1.315863
H       0.492623     -1.282127     -1.426203
