14
Extracted from Q-Chem output
C       1.499250      0.523778     -0.324301
C       0.463237      0.106093      0.766054
C      -0.738057      0.789545      0.165309
C      -1.652272     -0.319797     -0.238156
O      -0.658795     -1.338645     -0.658103
C       0.439292     -1.121051      0.003393
H       1.664951      1.598048     -0.235357
H       2.466362      0.011187     -0.378850
H       0.718277      0.123964      1.820974
H       0.404866      0.785395     -0.992313
H      -1.148902      1.679760      0.627131
H      -2.279765     -0.116390     -1.104950
H      -2.268706     -0.803666      0.540919
H       1.216285     -1.865352     -0.096061
