16
Extracted from Q-Chem output
O      -1.383396      0.454623     -1.314484
C      -1.688377     -0.283039     -0.154586
C      -0.528466     -1.121165      0.372361
C       0.598401     -0.366018      1.081550
C       1.494464      0.503482      0.219277
O       0.806276      1.699856     -0.143251
H      -0.702813      1.096535     -1.070932
H      -2.058416      0.376346      0.644473
H      -2.509057     -0.950223     -0.427291
H      -0.118402     -1.701932     -0.460870
H      -0.940560     -1.844524      1.083658
H       1.248817     -1.100062      1.566456
H       0.187781      0.257297      1.883053
H       1.802189     -0.044589     -0.679892
H       2.394977      0.764686      0.785442
H       1.396583      2.258727     -0.650963
