16
Extracted from Q-Chem output
O      -1.159683     -0.227298     -1.064242
C      -2.026216     -0.047435      0.229695
C      -0.313923     -1.171822      0.170683
C       0.646754     -0.399521      1.036085
C       1.519633      0.590638      0.289591
O       0.701038      1.610280     -0.281336
H      -0.592408      0.562722     -1.077020
H      -2.287160      1.016278      0.272476
H      -2.931744     -0.610212     -0.013864
H       0.246263     -1.674267     -0.636410
H      -0.881784     -1.915031      0.710803
H       1.331309     -1.146123      1.462173
H       0.117809      0.093860      1.848187
H       2.077384      0.073034     -0.501443
H       2.241865      1.035177      0.981695
H       1.255839      2.247903     -0.732632
