13
Extracted from Q-Chem output
N       1.255522     -0.595055     -0.108639
C       1.982020      0.425520     -0.621209
O       1.706777      1.596894     -0.510869
C      -1.185181     -0.380802     -0.365002
C      -0.009469     -0.375250      0.571005
C      -1.944039      0.676655     -0.597521
H       1.552828     -1.532874     -0.309751
H       2.886039      0.073923     -1.150699
H      -1.391510     -1.318961     -0.875428
H      -0.124314     -1.151352      1.331587
H       0.055099      0.586278      1.080128
H      -1.744605      1.628021     -0.116253
H      -2.782599      0.633883     -1.281794
