14
Extracted from Q-Chem output
O       1.082330      1.842945      0.351882
C       1.636199      0.759090      0.380695
C       1.106285     -0.521251     -0.059004
C      -0.181842     -0.831362     -0.535771
C      -1.366348     -0.382209      0.173253
C      -1.271321      0.615073     -0.801081
H       2.675084      0.687383      0.758530
H       1.883777     -1.237540     -0.310570
H       0.272290     -0.392596      1.615243
H      -0.294005     -1.719737     -1.146132
H      -2.264611     -0.990139      0.228571
H      -0.594229     -0.225726      1.494762
H      -2.071590      0.766927     -1.521875
H      -0.500703      1.374655     -0.743915
