18
Extracted from Q-Chem output
C      -2.946844      0.015372     -0.131205
C      -1.529402     -0.301300     -0.589316
C      -0.468104      0.265232      0.345919
C       0.939419     -0.051566     -0.111492
O       1.858355      0.511005      0.791602
C       3.189680      0.253114      0.440612
H      -3.141523     -0.401237      0.860005
H      -3.689905     -0.394967     -0.817261
H      -3.108342      1.094455     -0.071740
H      -1.375315      0.095732     -1.598385
H      -1.404915     -1.386686     -0.667768
H      -0.575598      1.351704      0.420909
H      -0.606038     -0.132810      1.355899
H       1.086501     -1.141944     -0.169048
H       1.111477      0.349919     -1.122959
H       3.826174      0.732501      1.183440
H       3.431805      0.660389     -0.550593
H       3.402577     -0.824654      0.431381
