14
smiles: [C:1]([C:2]([N:3]=[C:4]([H:13])[H:14])([H:10])[H:11])([H:7])([H:8])[H:9].[C:5]=[N:6][H:12]
C        1.69428900       0.11928600       0.63726300
C        0.51917100       0.99095100       0.22281800
N       -0.57325700       0.17026800      -0.26133100
C       -0.97587900       0.35670300      -1.43695600
C       -2.35031000      -2.49964800       2.04396800
N       -1.81659400      -1.71560400       1.37193100
H        2.09552500      -0.42194700      -0.22160800
H        1.38215300      -0.61287700       1.38287500
H        2.49391400       0.72878700       1.06148900
H        0.14927800       1.53943600       1.09362200
H        0.83483200       1.73149700      -0.52769800
H       -1.36061600      -1.04231600       0.79673800
H       -1.79109500      -0.25059300      -1.82665000
H       -0.54491400       1.11333300      -2.10665000
