16
Extracted from Q-Chem output
C       1.989846     -0.215270      0.402658
C       0.656370     -0.136440     -0.301253
C      -0.161316      1.211995     -0.127279
C      -0.585001     -0.039280      0.561446
C      -1.894080     -0.694232      0.207284
C       0.606714     -0.027284     -1.709604
H       1.966093      0.253875      1.389091
H       2.759974      0.257011     -0.206132
H       2.261135     -1.263484      0.542582
H       0.413912      1.967539      0.390528
H      -0.782124      1.590312     -0.929727
H      -0.347639     -0.075061      1.620797
H      -2.723367     -0.185802      0.702834
H      -2.082613     -0.668771     -0.866157
H      -0.435661     -0.159373     -2.043601
H      -1.898632     -1.738194      0.524919
