14
Extracted from Q-Chem output
C      -0.782798     -1.164145     -0.141386
C      -1.275240      0.269674     -0.106121
O      -0.369488      1.134633     -0.730218
C       0.817565      1.197698      0.064810
C       1.640808     -0.047242      0.112227
O       0.578105     -1.322029      0.289844
H      -1.406500     -1.818031      0.471267
H      -0.780412     -1.525338     -1.171350
H      -2.226087      0.323488     -0.639654
H      -1.449833      0.589426      0.933097
H       0.511864      1.525870      1.069180
H       1.455944      1.979250     -0.354698
H       1.055467     -0.930836      1.140711
H       2.089099     -0.296941     -0.848102
