12
Extracted from Q-Chem output
O       1.928490      0.489329     -0.322999
C       0.745533      0.058684      0.300873
C      -0.550981      0.710671     -0.275798
C      -1.012479     -0.707199     -0.533824
C       0.134051     -1.257066     -0.141151
O      -1.323358      1.545848      0.541951
H       2.680388      0.084906      0.112354
H       0.802626      0.180889      1.389164
H      -0.323982      1.278344     -1.178710
H      -1.620039      1.041063      1.302421
H      -1.943697     -1.104416     -0.918764
H       0.517277     -2.270089     -0.146993
