19
smiles: [C:1]([O:2][C:7]([H:17])([H:18])[H:19])([H:8])([H:9])[H:10].[C:3]1([H:11])=[C:6]([H:16])[C:5]([H:14])([H:15])[C:4]1([H:12])[H:13]
C        0.19251600      -2.05658200      -0.17919000
O       -0.02919600      -1.62908900      -1.49510000
C        0.41991300       1.76514500       0.70515000
C       -0.92329800       1.49057700       0.06848500
C       -1.37629600       1.05024400       1.49531400
C        0.03313700       1.39070000       1.92259600
C        1.11061800      -1.04806600      -2.06711000
H       -0.73777900      -2.48680100       0.18979100
H        0.47996500      -1.22061900       0.47322800
H        0.98161700      -2.81947500      -0.12997700
H        1.35362300       2.13742600       0.30139700
H       -1.44565300       2.36277900      -0.33030900
H       -0.94027600       0.69801700      -0.68270200
H       -1.65706000      -0.00157200       1.58255200
H       -2.16713500       1.66185500       1.93473700
H        0.53474600       1.34296000       2.88148400
H        0.85299100      -0.74622000      -3.08162200
H        1.43744400      -0.16301200      -1.50410900
H        1.94749700      -1.75864100      -2.10949200
