16
Extracted from Q-Chem output
C       1.837698      0.531419      0.286697
C       1.478059     -0.102840     -1.035953
N       0.160218     -0.083729     -1.390771
O       2.311751     -0.593199     -1.769606
C      -1.412345     -0.658334      0.432420
C      -0.960791      0.353821     -0.583957
C      -1.587560     -0.395782      1.717113
H       1.309146      0.049566      1.110915
H       2.909539      0.427677      0.429664
H       1.575454      1.591527      0.293624
H      -0.028136     -0.540493     -2.267684
H      -1.597712     -1.659804      0.051909
H      -0.720718      1.297019     -0.088091
H      -1.782519      0.570384     -1.271339
H      -1.399500      0.593725      2.122407
H      -1.926631     -1.153850      2.412056
