16
Extracted from Q-Chem output
C       1.935469     -0.531289     -1.122191
C       1.289132      0.190365      0.025602
N       1.332084     -0.349082      1.221262
O       0.578975      1.221386     -0.263236
C      -1.067818      0.799719      0.440963
C      -0.931716     -0.495268      1.015255
C      -2.099976      0.517279     -0.430229
H       1.153819     -0.934532     -1.773991
H       2.512025      0.174131     -1.721291
H       2.575987     -1.337109     -0.772634
H       1.019234      0.343096      1.897913
H      -1.168272      1.650352      1.100230
H      -0.885681     -1.368588      0.383252
H      -1.162619     -0.664345      2.059265
H      -2.043447     -0.333519     -1.094952
H      -2.956772      1.172702     -0.536200
