17
smiles: [C:1]([O:2][C:3](=[C:4]([H:12])[H:13])[H:11])([H:8])([H:9])[H:10].[O:5]=[C:6]([C:7]([H:15])([H:16])[H:17])[H:14]
C        2.56594500       1.04248900      -0.88906600
O        1.80554000      -0.01064500      -1.43726300
C        1.09192600      -0.75616000      -0.57288700
C        1.01155600      -0.62803100       0.74685200
O       -2.28660800      -1.80791900      -0.39919300
C       -2.26420000      -0.60950400      -0.34509200
C       -2.62567700       0.19497800       0.86680100
H        1.92381000       1.76256600      -0.37187700
H        3.31470100       0.66285800      -0.18641800
H        3.06391600       1.53126300      -1.72337000
H        0.55023900      -1.52901600      -1.10648900
H        0.38657300      -1.31500500       1.29847400
H        1.53920200       0.13083500       1.30716100
H       -1.95909700      -0.01711800      -1.23389900
H       -1.77200600       0.81177700       1.16013500
H       -3.44072600       0.88009400       0.61959500
H       -2.91736100      -0.45593200       1.68867700
