12
Extracted from Q-Chem output
C      -1.542381      0.509829      0.084830
C      -0.756237     -0.432621     -0.781600
C      -1.148255     -0.843006     -1.946571
C       0.587685     -0.979303     -0.317876
C       1.551034      0.086318     -0.054768
C       2.330901      0.966792      0.165294
H      -1.788882      0.026510      1.032475
H      -0.942880      1.397405      0.294303
H      -2.467817      0.818476     -0.398934
H       0.995287     -1.666832     -1.062811
H       0.425997     -1.560355      0.594420
H       3.033145      1.743302      0.357396
