10
Extracted from Q-Chem output
O       2.525395      0.424864      0.165071
C       1.862483     -0.512086     -0.466757
C       0.435796     -0.293988     -0.234055
N      -0.514509     -1.036752     -0.716695
C      -1.676451     -0.482351     -0.256202
C      -1.369086      0.597908      0.502805
O      -0.037383      0.733522      0.529156
H       3.463623      0.276706      0.010420
H      -2.645832     -0.887842     -0.496051
H      -1.951913      1.317571      1.053152
