12
smiles: [C-:3]1([H:9])[C:4]([H:10])([H:11])[N+:5]1([C:6](=[O:7])[H:12])[H:8].[O+:1]#[C-:2]
O        3.58351200      -0.03925400      -0.85255400
C        2.51193200      -0.32208300      -1.03635000
C        0.54452500       0.64338800       0.91689600
C       -0.37924000       1.14178900      -0.11896600
N       -0.35469300      -0.33853100      -0.13553500
C       -1.43378000      -1.09699800       0.33471200
O       -2.35907600      -0.64839200       0.93914900
H        0.27099500      -0.80077800      -0.77451600
H       -0.05222200       0.53423900       1.83406900
H        0.03757800       1.55261700      -1.03599200
H       -1.38113800       1.50717100       0.10151800
H       -1.31870900      -2.16682000       0.09511400
