12
Extracted from Q-Chem output
O       3.072810      0.057040     -0.390145
C       1.935329     -0.114629     -0.601436
C       0.667479      0.396456      0.550453
C      -0.338531      1.125285     -0.226579
N      -0.360995     -0.338521     -0.246339
C      -1.405375     -1.096723      0.343988
O      -2.412446     -0.621653      0.763986
H       0.430867     -0.706176     -1.006757
H       0.564234      0.328700      1.629721
H      -0.032079      1.539284     -1.185457
H      -1.198339      1.586894      0.242556
H      -1.173696     -2.171875      0.357074
