16
Extracted from Q-Chem output
C       2.384800     -0.143978      0.445215
C       1.051414      0.139574     -0.173115
C      -1.184969     -1.001212     -0.874919
C      -1.977551     -0.321843      0.139199
C      -1.228817      0.976437      0.147884
C       0.147293      1.040175      0.329709
H       2.561388      0.492778      1.314049
H       3.202914     -0.004867     -0.266363
H       2.439409     -1.180063      0.793384
H       0.884681     -0.227021     -1.173733
H      -1.314390     -0.716668     -1.910014
H      -0.619419     -1.897455     -0.670722
H      -1.993270     -0.815962      1.112646
H      -3.008021     -0.140047     -0.177011
H      -1.804233      1.898389      0.083405
H       0.521374      1.862850      0.944105
