11
smiles: [C-:2]#[O+:3].[C-:4]#[O+:5].[C:1]([N:6]([H:10])[H:11])([H:7])([H:8])[H:9]
C       -0.90914400       0.05067400       1.03522400
C        0.42039300      -1.17858500      -2.16649400
O        0.25471400      -2.27619700      -1.99379100
C        1.22481700       2.05978200      -0.91102100
O        0.90819500       2.78637700      -1.70719900
N        0.37636000      -0.57043900       1.32273700
H       -1.69817900      -0.49258200       1.55800100
H       -0.91222000       1.07060500       1.42341800
H       -1.17736600       0.09366400      -0.02905100
H        0.39846700      -1.52322300       0.98652200
H        1.12637900      -0.07590800       0.86001400
