11
Extracted from Q-Chem output
C      -1.128421     -0.136717      0.729333
C      -0.223166     -0.197799     -1.402425
O      -0.689533     -0.972591     -2.161099
C       1.086899      0.080569     -0.814912
O       2.119061      0.438341     -1.343070
N       0.812661      0.267353      0.591312
H      -1.438465     -1.081419      0.298661
H      -0.983923     -0.220061      1.801491
H      -1.756892      0.699045      0.450255
H       1.565800     -0.120162      1.156772
H       0.652391      1.225680      0.871907
