12
Extracted from Q-Chem output
N      -2.137283     -0.321129     -0.278867
C      -0.835518     -0.092690     -0.054857
C       0.178504     -1.012259      0.207429
C       1.320567     -0.213140      0.207882
O       2.587107     -0.335971      0.026042
C       0.973632      1.179073      0.110947
O      -0.455441      1.169720     -0.136559
H      -2.722006      0.431637     -0.590846
H      -2.492812     -1.256782     -0.295846
H       0.082073     -2.084688      0.169677
H       2.311797      0.866591     -0.403853
H       1.161855      1.761409      1.011847
