13
Extracted from Q-Chem output
C      -0.675795      1.258721     -0.081683
C      -0.649781     -0.041085      0.605932
C      -0.017552      0.390911     -1.149754
N       1.351582      0.226336     -1.093192
C       0.600253     -0.615540      1.125955
C       0.804785     -0.815399     -0.372796
H      -0.026687      2.041432      0.295172
H      -1.674194      1.601524     -0.334633
H      -1.536402     -0.659228      0.580948
H      -0.683452     -0.013576     -1.916098
H       0.462119     -1.534306      1.687271
H       1.319107      0.063972      1.570502
H       0.530155     -1.797325     -0.766555
