13
Extracted from Q-Chem output
C      -1.064774      0.899516      0.255296
C      -0.946115     -0.530628     -0.167182
C      -0.268540      0.549600     -0.959635
N       1.099604     -0.048459     -0.763562
C       1.421835     -0.153096      0.660935
C       0.459012     -1.096493      0.075480
H      -0.639578      1.282694      1.173024
H      -2.021158      1.344006      0.007420
H      -1.794210     -1.143486     -0.432814
H      -0.491797      0.943765     -1.940357
H       1.125706      0.617545      1.359134
H       2.428852     -0.522302      0.814443
H       0.691164     -2.142661     -0.082181
