8
Extracted from Q-Chem output
N      -1.031307     -0.528208      0.235326
C      -0.093309      0.537344      0.068618
C       2.288437     -0.240712     -0.650348
N       1.231975      0.125648     -0.327402
H      -1.168721     -1.044650     -0.621774
H      -0.742374     -1.173051      0.957087
H       0.007287      1.086875      1.004428
H      -0.453547      1.229414     -0.692458
