8
Extracted from Q-Chem output
N      -1.001860     -0.497271      0.062928
C      -0.107895      0.519473      0.058267
C       1.562577     -0.052082     -0.788743
N       1.862677     -0.101276      0.348361
H      -1.198770     -0.932823     -0.822707
H      -0.940412     -1.150430      0.825688
H       0.087165      0.962569      1.023385
H      -0.225041      1.244501     -0.733704
