16
smiles: [C:1](=[C:2]1[C:3]([C:4]([H:11])([H:12])[H:13])=[C:5]([H:14])[C:6]([H:15])=[N:7]1)([H:8])[H:10].[H:9][H:16]
C        0.31684500       1.80814800       0.01031400
C        0.90392900       0.63184000       0.20733100
C        0.27131700      -0.70278000       0.23074600
C       -1.17783100      -0.97693700       0.02143200
C        1.27347500      -1.56462700       0.46877100
C        2.49264900      -0.76023100       0.58490900
N        2.29583400       0.50156200       0.43673600
H       -0.74982400       1.88363500      -0.16218300
H       -3.38409000       1.59530000      -1.24044500
H        0.90273000       2.71791000       0.01973200
H       -1.39296900      -2.03966500       0.12946500
H       -1.49586000      -0.66684000      -0.97680300
H       -1.79086500      -0.43161800       0.74239400
H        1.20917700      -2.64006000       0.55861100
H        3.48509700      -1.15505700       0.77681900
H       -3.07629200       1.88869200      -1.85172600
