14
smiles: [C:1](=[C:2]([N:3]=[O:4])[C@@:5]1([H:12])[C:6]([H:13])([H:14])[O:7]1)([H:8])[H:9].[H:10][H:11]
C       -1.22828800      -0.49708000      -0.96586100
C       -0.22786200       0.09332100      -0.32742700
N       -0.43288100       1.34884200       0.38214000
O       -1.54706300       1.53166900       0.77233500
C        1.17938900      -0.36167100      -0.35791500
C        2.30403800       0.55642700      -0.17426900
O        1.88738600      -0.30358200       0.87011000
H       -2.22522200      -0.07669700      -0.92589900
H       -1.07066100      -1.39449500      -1.55042200
H       -3.07595600      -1.35504800       2.04296700
H       -2.79861400      -0.72542500       1.75827000
H        1.34480400      -1.27002800      -0.93218800
H        3.25877200       0.30700800      -0.62813600
H        2.10599300       1.60998600      -0.00965300
