17
Extracted from Q-Chem output
C      -0.249052      2.108052     -0.115824
C      -0.769541      0.740068     -0.508947
C       0.139072     -0.439507     -0.371856
C       1.484444     -0.296425      0.282342
N      -1.282478     -0.066034      0.509784
C      -0.754121     -1.852661      0.351058
H       0.287012      2.070968      0.831470
H      -1.092265      2.790197      0.006896
H       0.405467      2.521584     -0.887741
H      -1.313492      0.774722     -1.468160
H       0.148096     -0.978658     -1.318017
H       1.990804     -1.263057      0.331836
H       2.119499      0.382951     -0.290247
H       1.386092      0.087485      1.296259
H      -1.101306     -1.935845      1.372504
H       0.161115     -2.454413      0.277902
H      -1.488880     -2.229998     -0.352776
