15
Extracted from Q-Chem output
C       1.782221      0.330569     -0.703367
C       0.827301     -0.544499     -0.002366
O       1.202835     -1.760854      0.208442
C      -0.437500     -0.125101      0.592913
O      -0.144027     -0.467138      1.855626
C      -1.772164     -0.285556     -0.099362
C      -1.191153      1.090011      0.148203
H       2.687652     -0.197852     -0.991300
H       1.299812      0.785721     -1.570187
H       2.025044      1.144677     -0.015605
H       0.584646     -2.059325      0.920297
H      -2.573035     -0.615105      0.550686
H      -1.826532     -0.641380     -1.121617
H      -0.861172      1.660852     -0.712650
H      -1.618628      1.677288      0.949688
