20
Extracted from Q-Chem output
C       2.606397      0.063256     -0.322451
C       1.310443     -0.684346     -0.205265
C       0.052506     -0.044774      0.017391
C      -0.068444      1.425830     -0.264290
C      -1.180092     -0.893994     -0.204444
C      -2.493746     -0.376360      0.362149
H       2.831453      0.665149      0.569315
H       3.429459     -0.642235     -0.436575
H       2.644035      0.742617     -1.180531
H       1.297069     -1.760224     -0.321353
H       0.729376     -0.406263      1.069033
H      -0.133864      0.141310      1.673424
H      -0.942814      1.860410      0.214725
H       0.815441      1.970589      0.058798
H      -0.156546      1.536042     -1.351131
H      -0.974816     -1.898476      0.170924
H      -1.253951     -0.989033     -1.294300
H      -2.800660      0.560246     -0.106092
H      -3.286311     -1.104078      0.182395
H      -2.418085     -0.211763      1.437536
