11
Extracted from Q-Chem output
C      -1.624764     -0.379953     -1.087710
N      -1.250945      0.348781      0.033061
C      -0.107718      0.435805      0.602969
O       0.973485     -0.128764     -0.047824
C       2.192134      0.021822      0.499020
O       2.434771      0.597018      1.514986
H      -2.584833     -0.091087     -1.488562
H      -2.094595     -0.368337      0.291873
H      -0.885595     -0.850469     -1.725116
H       0.050715      0.896700      1.562479
H       2.930565     -0.475604     -0.141844
