18
Extracted from Q-Chem output
C       2.490235     -0.769016     -0.443665
C       1.388993     -1.145411      0.511002
C      -0.516229      1.660301     -0.186601
C      -1.003911      0.379974      0.495207
C      -2.344398     -0.100620     -0.048718
C       0.025751     -0.679792      0.371708
N       0.158383     -1.851454     -0.038666
H       2.079669     -0.412967     -1.390139
H       3.133586     -1.626724     -0.653767
H       3.116199      0.023272     -0.025480
H       1.721488     -1.506550      1.483003
H       0.443387      1.986373      0.217446
H      -1.239301      2.464126     -0.040941
H      -0.396916      1.503081     -1.260990
H      -1.100062      0.585710      1.568144
H      -2.666085     -1.017469      0.446106
H      -3.111632      0.660692      0.101710
H      -2.272066     -0.308022     -1.118159
