15
Extracted from Q-Chem output
C       2.139474      0.015273     -0.499938
C       0.648089     -0.238940     -0.589263
C      -0.067231     -0.395712      0.734075
C      -1.252241      0.358711      0.304691
O      -1.183333      1.639061     -0.010227
N      -2.455139     -0.176916      0.237292
H       2.563452      0.200562     -1.490049
H       2.711125     -0.820206     -0.058794
H       2.371070      0.900837      0.102313
H      -0.280568      1.627258     -0.437575
H       0.394016     -1.059067     -1.260401
H      -0.319733     -1.398412      1.114225
H       0.434264      0.160934      1.531327
H      -3.200307      0.304530     -0.236173
H      -2.611485     -1.105933      0.585049
