17
Extracted from Q-Chem output
C       2.109772      0.249988      0.473517
O       1.372296     -0.679124      1.059390
C       0.186363     -1.147881     -0.217896
C      -1.133496     -1.157369      0.185667
C      -1.761699      0.192033      0.286579
C      -0.844968      1.032671     -0.606601
C       0.150658      0.007426     -1.092290
H       3.085602     -0.076866      0.077653
H       2.194490      1.199943      1.021548
H       1.540570      0.579055     -0.539721
H       0.662912     -2.065509     -0.534252
H      -1.674422     -2.062989      0.440883
H      -2.778695      0.184970     -0.112131
H      -1.830598      0.529080      1.326512
H      -1.396266      1.480060     -1.433546
H      -0.354259      1.845920     -0.066028
H       0.407901     -0.071182     -2.143330
