17
smiles: [C-:2]([N+:3]1=[C:5]([C:6]([H:15])([H:16])[H:17])[C:4]1([H:12])[H:13])([H:10])[H:11].[C:1]([H:7])([H:8])([H:9])[H:14]
C       -1.51314200       2.13795600       0.69848400
C       -1.21060500      -1.22169400      -0.74657100
N       -0.10320200      -1.14167200      -0.07415200
C        0.90585600      -2.01454300       0.49752900
C        1.01882200      -0.55549200       0.27880900
C        1.88530500       0.33259400      -0.53319400
H       -2.50628600       1.69817400       0.77694100
H       -1.47004400       3.04716000       1.29616000
H       -1.30450200       2.37818500      -0.34303200
H       -1.79655800      -2.12379300      -0.67137200
H       -1.56346700      -0.34992900      -1.27766200
H        0.72354200      -2.40448600       1.49570600
H        1.29752000      -2.74323500      -0.22044600
H       -0.77208300       1.42761700       1.06175600
H        2.84920000       0.47523200      -0.04632900
H        1.42739200       1.31564200      -0.65334200
H        2.06200900      -0.08284400      -1.53737300
