17
Extracted from Q-Chem output
C      -1.491597      1.231618      0.673864
C      -1.331744     -0.840856     -0.806731
N      -0.054565     -0.992578     -0.534251
C       0.583351     -1.338450      0.712608
C       0.832961     -0.063146     -0.020969
C       2.088752      0.449150     -0.638944
H      -2.302677      0.689919      1.157213
H      -1.085469      1.934748      1.406597
H      -1.898008      1.809241     -0.156477
H      -2.030636     -1.589381     -0.453162
H      -1.603127     -0.227152     -1.655298
H      -0.036130     -1.278448      1.608263
H       1.254990     -2.190818      0.657671
H      -0.205861      0.737183      0.395012
H       2.644556      1.024328      0.102910
H       1.861352      1.117481     -1.471388
H       2.740461     -0.351401     -1.001121
