17
Extracted from Q-Chem output
C      -1.781810     -0.170110      1.320559
C      -1.599732      1.169765      0.637310
C      -0.883670     -0.089981      0.168871
C       0.708528     -1.263359      0.149577
C       1.605509     -0.815161     -1.011212
C       1.519931      0.612702     -0.477291
O       0.718230      0.250113      0.675076
H      -1.306487     -0.267361      2.288017
H      -2.705822     -0.725874      1.220729
H      -2.396485      1.532824     -0.001088
H      -1.062859      1.930375      1.187048
H      -1.202482     -0.458720     -0.795423
H       1.216886     -1.846901      0.920956
H       2.619253     -1.219781     -1.023528
H       1.168495     -0.958141     -2.003648
H       2.454411      1.047256     -0.119770
H       0.993919      1.342976     -1.096100
