13
Extracted from Q-Chem output
C       1.616082      0.075816      0.614065
C       0.415971     -0.233663     -0.255868
C      -1.580657     -1.068144     -0.001489
N      -1.798209      0.307595     -0.365217
C      -0.570695      0.913133     -0.428417
O      -0.311423      2.086096     -0.462512
H       2.187744      0.875707      0.141287
H       1.308985      0.422655      1.600626
H       2.258672     -0.796611      0.726477
H       0.691239     -0.687420     -1.207107
H      -0.224773     -1.026069      0.403745
H      -1.373729     -1.618017     -0.932959
H      -2.520848      0.818870      0.120426
