13
Extracted from Q-Chem output
N       1.518372     -2.062633     -0.983685
C       0.788302     -1.265891     -0.595230
O       1.388145      1.654301     -0.460114
C       0.632912      0.964702      0.503206
C      -0.089635     -0.235905     -0.077165
C      -1.419607     -0.096772     -0.718190
N      -1.302029     -0.647306      0.623046
H       2.177350      1.149638     -0.668937
H       1.247529      0.642636      1.351539
H      -0.122795      1.654319      0.879476
H      -1.657454     -0.763014     -1.538646
H      -1.853803      0.894018     -0.775848
H      -1.404329     -1.654850      0.622235
