13
Extracted from Q-Chem output
N       1.881850     -1.363772     -0.917860
C       0.945686     -0.659303     -0.700970
O       1.626632      1.049885     -0.480772
C       0.557588      1.143248      0.438984
C      -0.238121     -0.064866     -0.043062
C      -1.602118     -0.173654     -0.599921
N      -1.240725     -0.817760      0.656394
H       2.285529     -0.193792     -0.653419
H       0.861498      1.025752      1.485768
H       0.012529      2.081540      0.319477
H      -1.742066     -0.784845     -1.484637
H      -2.265490      0.677531     -0.507518
H      -1.119005     -1.819021      0.565825
