13
Extracted from Q-Chem output
C       2.026141      0.119905     -0.196511
C       0.603348      0.088428     -0.149460
C      -0.243148     -1.065872     -0.276640
N      -1.562103     -0.656740     -0.148172
C      -1.586783      0.670484      0.152973
C      -0.328559      1.171940      0.167362
H       0.830196     -0.612873      0.812091
H       2.579784     -0.723089     -0.580614
H       2.544835      0.999169      0.148405
H       0.029043     -2.059079     -0.592582
H      -2.331649     -1.282461     -0.006046
H      -2.523427      1.170812      0.346865
H      -0.047977      2.198632      0.332938
