12
smiles: [C:2](=[O:3])=[C:4]1[C:5]([H:10])([H:11])[N:6]1[H:12].[N:1]([H:7])([H:8])[H:9]
N        1.93349200      -0.21957700       1.16489900
C       -0.01560200       1.57765000      -0.15810500
O        0.59372200       2.55114100       0.02867300
C       -0.77305000       0.54700100      -0.31574000
C       -1.66151600      -0.26878400      -1.12477000
N       -0.85307600      -0.86181400      -0.04927100
H        2.80698100      -0.05616600       0.68261900
H        1.43411600      -0.93620800       0.65570300
H        2.15527800      -0.59328100       2.07788300
H       -1.35517100      -0.55074900      -2.12555200
H       -2.73068200      -0.16080400      -0.97038600
H       -1.43336800      -1.01598600       0.77110900
