12
Extracted from Q-Chem output
N       1.645067     -0.032062      0.890904
C       0.758335      0.791508     -0.096552
O       1.155541      1.786620     -0.609578
C      -0.495196      0.136367      0.197971
C      -1.650566      0.069043     -0.693300
N      -0.786126     -1.111464     -0.559790
H       2.249650      0.546262      1.461142
H       2.168949     -0.765966      0.427811
H       0.490857     -0.242837      1.282463
H      -1.610523      0.545004     -1.667652
H      -2.638227      0.031032     -0.245412
H      -1.228034     -1.769659      0.072823
