19
smiles: [C:1]([C@@:2]1([H:11])[C@@:3]2([H:12])[C:4]([H:13])([H:14])[C:5][C:6]([H:17])([H:18])[C@@:7]12[H:19])([H:8])([H:9])[H:10].[H:15][H:16]
C       -2.09814700      -0.05045400       0.33804800
C       -1.37058800      -0.71870000      -0.80029500
C       -0.22044300      -0.07274100      -1.52080200
C        0.43996500       1.08638900      -0.79956600
C        0.83116100       0.67806500       0.57631100
C        0.80430000      -0.80851600       0.54193300
C        0.01299900      -1.28939700      -0.65880900
H       -2.85675400       0.64006300      -0.03682900
H       -2.59774300      -0.78978300       0.96767100
H       -1.43722200       0.52985200       0.99188000
H       -2.01803400      -1.30199900      -1.44585500
H       -0.18215700      -0.12877500      -2.60113900
H        1.42302100       1.33079900      -1.23919800
H       -0.10410700       2.03415700      -0.81136900
H        3.77867000       1.92044600       2.04488700
H        3.07156800       1.75971300       1.87573600
H        0.52958300      -1.24247700       1.50651900
H        1.87961600      -1.03685800       0.43441600
H        0.22528500      -2.25821200      -1.09240300
