19
Extracted from Q-Chem output
C      -2.127081     -0.090116      0.273943
C      -1.162081     -0.632006     -0.749504
C       0.024191      0.135802     -1.266545
C       0.537609      1.316421     -0.450739
C       1.257608      0.818855      0.776097
C       0.863683     -0.631513      0.884363
C       0.230289     -1.097788     -0.421032
H      -2.882781      0.536298     -0.205153
H      -2.644710     -0.906217      0.782903
H      -1.644908      0.515541      1.042601
H      -1.652386     -1.233587     -1.508595
H       0.216630      0.121782     -2.332350
H       1.149865      2.007355     -1.030500
H      -0.275519      1.936102     -0.046563
H       2.964084      0.436774     -0.195106
H       2.776751      0.852944      0.456359
H       0.159813     -0.651846      1.728538
H       1.696935     -1.256540      1.206064
H       0.577214     -2.025223     -0.859869
