11
smiles: [C:1](=[C:2]([C:4]#[N:5])[H:9])([H:6])[H:8].[N:3]([H:7])([H:10])[H:11]
C        1.98006900       0.79928200      -0.96851100
C        0.85364600       0.42247500      -0.37887400
N       -1.60575400      -1.48975300       0.74592200
C       -0.10764100       1.36456500       0.11226500
N       -0.88752500       2.10726100       0.51155200
H        2.22512500       1.84444300      -1.10859100
H       -1.60592300      -2.12806800       1.53010900
H        2.68735800       0.06253200      -1.32631200
H        0.60567800      -0.62271400      -0.23724800
H       -2.26942300      -1.83973200       0.06818000
H       -1.95132600      -0.59969300       1.07867300
