17
Extracted from Q-Chem output
C       2.464593     -0.035951      0.287141
C       0.992404      0.130165      0.030540
C       0.111945     -0.800260      0.421908
C      -1.378250     -0.961418      0.335187
C      -2.271073      0.093151     -0.300491
C       0.631868      1.378633     -0.676488
O       1.456944      2.191282     -1.019267
H       2.848272      0.795254      0.881179
H       3.022473     -0.028038     -0.650825
H       2.668720     -0.968892      0.811760
H       0.558101     -1.658196      0.924079
H      -1.719309     -1.138813      1.362112
H      -1.546577     -1.919421     -0.171285
H      -2.039668      0.247034     -1.355478
H      -3.311030     -0.232241     -0.239872
H      -0.431439      1.556864     -0.890365
H      -2.200059      1.053448      0.212436
