17
Extracted from Q-Chem output
C       2.308923      0.036313      0.097727
C       0.824728     -0.126952      0.061721
C       0.111305     -1.138844      0.528151
C      -1.382163     -1.016313      0.422535
C      -1.662678      0.222844     -0.407857
C       0.062060      1.040054     -0.503046
O       0.013816      2.169195      0.197217
H       2.565945      0.940038      0.654085
H       2.717914      0.146479     -0.910373
H       2.787194     -0.819956      0.572048
H       0.562233     -2.007595      0.995405
H      -1.827890     -0.941656      1.418658
H      -1.820672     -1.903351     -0.042146
H      -1.808746      0.041673     -1.468719
H      -2.533952      0.800903     -0.061801
H       0.157539      1.142436     -1.597762
H      -1.082247      1.369719      0.029770
