14
Extracted from Q-Chem output
C       2.263158      0.178707     -0.320588
O       1.173679      1.059597     -0.047325
C       0.404280      0.704932      0.952175
C      -1.123020     -0.827269      0.101153
C      -2.319850     -0.028825      0.374707
O      -3.027899     -0.167701      1.345320
H       2.983721      0.737818     -0.912523
H       1.897947     -0.676561     -0.894189
H       2.708603     -0.164655      0.612976
H      -0.386731      1.455935      1.071949
H      -0.104599     -0.444978      0.930188
H      -1.166725     -1.831381      0.522895
H      -0.772372     -0.796661     -0.927156
H      -2.531451      0.777042     -0.359986
