13
Extracted from Q-Chem output
O       3.030615     -1.271548      0.059619
C       2.187979     -0.537202     -0.388114
N       0.848765     -0.666475     -0.131075
C      -0.096527      0.209686     -0.665933
C      -1.123004      0.884435      0.709378
C      -1.502524     -0.139102     -0.316494
H       2.400457      0.312592     -1.056921
H       0.597908     -1.456463      0.452453
H      -0.076765      1.308901     -0.001942
H      -0.815710      0.529548      1.684736
H      -1.640532      1.837617      0.683173
H      -2.268000      0.152380     -1.026672
H      -1.664967     -1.143168      0.067582
