13
Extracted from Q-Chem output
C      -1.695027      0.057558     -0.123383
C      -0.264178     -0.352024     -0.238290
O      -0.034658     -1.714038     -0.440616
C       0.813664      0.427529     -0.101330
O       0.788025      1.747754      0.225087
N       2.113575     -0.000189     -0.313111
H      -1.822650      1.137716     -0.021792
H      -2.177397     -0.418717      0.734941
H      -2.259307     -0.233192     -1.016105
H      -0.103855      1.994491      0.475097
H      -0.311014     -1.948708     -1.330059
H       2.183909     -1.005426     -0.319490
H       2.773764      0.433007      0.313442
