13
Extracted from Q-Chem output
C      -0.889959      1.185772     -0.269811
C      -1.681472     -0.042728      0.074222
C       0.328571     -1.204703     -0.148826
C       1.234741      0.028203     -0.248032
N       0.305295      0.863561      0.553911
C      -0.501479     -0.377041      0.899002
H      -1.473229      1.962929      0.252516
H      -0.750991      1.516645     -1.301995
H      -0.228012     -1.464998     -1.052258
H       0.754269     -2.114086      0.266924
H       2.173337     -0.097709      0.291497
H       1.453279      0.418966     -1.243719
H      -0.541631     -0.769409      1.912960
