16
Extracted from Q-Chem output
C       1.958419      0.188639      0.133181
C       0.823789      0.267150     -0.889839
C      -0.499921     -0.192852     -0.335046
C      -0.969972     -1.417920     -0.525499
O      -2.368001      0.371044      1.170078
C      -1.248069      0.844219      0.463505
H       2.114157     -0.842794      0.454028
H       1.743470      0.785696      1.021839
H       2.893130      0.557562     -0.292717
H       1.078411     -0.339849     -1.761072
H       0.728096      1.298658     -1.246314
H      -2.072986     -0.308159      1.780591
H      -0.417864     -2.142651     -1.112867
H      -1.924701     -1.730008     -0.120623
H      -0.545234      1.354101      1.137875
H      -1.624038      1.609500     -0.222363
