13
Extracted from Q-Chem output
C       1.990561      0.122584      0.223527
C       0.253485      0.323612      0.027138
C      -0.490234     -0.735137     -0.265308
N      -1.904995     -0.670338     -0.135553
C      -2.594175      0.438361     -0.161737
C       0.810174      1.405242      0.515675
H       2.181903     -0.423997      1.137975
H       2.030618     -0.520810     -0.663116
H       2.745120      0.887675      0.048923
H      -0.068837     -1.656840     -0.636373
H      -2.326462     -1.582593      0.017156
H      -3.644371      0.149262      0.022301
H       0.999624      2.253285     -0.137157
