11
Extracted from Q-Chem output
O      -1.730869      1.309298      0.922595
C      -0.859298      0.607040      0.517478
C      -0.818844     -0.528264     -0.527298
N       0.624742     -0.674705     -0.195229
C       1.446689      0.561044     -0.387640
C       0.595205      0.408325      0.837039
H      -1.427865     -1.374800     -0.201636
H      -0.984684     -0.311778     -1.581079
H       0.949819      1.149763     -1.164783
H       1.063099     -1.568293     -0.032327
H       1.009748      0.301183      1.833675
