13
Extracted from Q-Chem output
C       1.974536      0.552251      0.062666
C       0.541644      0.229142     -0.087681
C       1.092598     -1.013887     -0.358740
N      -1.661896     -1.209039      0.016662
C      -1.687007      0.055925      0.006232
O      -2.818917      0.783859     -0.058621
N      -0.548191      0.866728      0.080007
H       2.309976      0.795220      1.065733
H       2.447075      1.088002     -0.755251
H       2.366950     -0.567421     -0.343102
H       1.131696     -1.728256      0.462334
H      -2.599424     -1.591554     -0.047491
H      -2.557428      1.710610     -0.040640
