12
Extracted from Q-Chem output
O       1.735648     -0.428694      0.366868
C       0.433983     -0.511945     -0.143298
C      -0.520341     -0.993875      0.935197
C      -1.068217      1.394332     -1.319888
C       0.015621      0.813470     -0.698674
O       0.774876      1.787490     -0.883711
H       2.184026      0.311299     -0.058317
H       0.392075     -1.207219     -0.996377
H      -0.190091     -1.965074      1.301371
H      -0.532876     -0.294715      1.772015
H      -1.659112      2.057994     -0.685001
H      -1.531781     -1.097624      0.537482
