12
Extracted from Q-Chem output
O       1.813768     -0.318528      0.518056
C       0.602758     -0.476452     -0.154528
C      -0.568480     -0.752570      0.776482
C      -1.301210      0.822106     -0.797663
C       0.135181      0.799765     -0.824850
O       0.851757      1.637660     -1.332185
H       2.325312      0.334061      0.024564
H       0.666628     -1.261214     -0.921154
H      -0.756545     -1.802326      0.996118
H      -0.500764     -0.168700      1.691080
H      -1.743118      1.547737     -0.107644
H      -1.512656     -0.448067      0.201689
