17
smiles: [C:5](=[O:6])([H:14])[H:15].[O:1]([C:2]([C:3]([C:4](=[C:7]([H:16])[H:17])[H:13])([H:11])[H:12])([H:9])[H:10])[H:8]
O        2.67398400      -0.12115200       1.13239800
C        2.16187900      -0.57251800      -0.10575700
C        0.64592800      -0.59910800      -0.02000600
C        0.03761300       0.76155200       0.13096900
C       -3.03007700      -0.21579200      -0.86595900
O       -4.08772000       0.34208400      -0.87922000
C       -0.75771000       1.13271200       1.12046300
H        3.62713300      -0.05416700       1.06948900
H        2.52917900      -1.58085400      -0.33593500
H        2.47329800       0.09209700      -0.92359900
H        0.34788500      -1.23948600       0.81408900
H        0.26961600      -1.06451100      -0.93780600
H        0.28336000       1.48093000      -0.64839400
H       -2.76171800      -0.94295900      -0.07579700
H       -2.26283200      -0.03448700      -1.64294300
H       -1.17396000       2.13153400       1.16985000
H       -1.01711700       0.44940500       1.92217500
