17
Extracted from Q-Chem output
O       1.974278     -0.029952      1.282904
C       1.943707     -0.471925     -0.062918
C       0.493484     -0.744467     -0.423620
C      -0.357641      0.490526     -0.328861
C      -2.160015      0.023086     -0.403481
O      -2.859973      0.890260      0.269012
C      -0.857345      0.939294      0.890301
H       2.869184      0.219740      1.514630
H       2.533017     -1.389009     -0.183058
H       2.359179      0.291003     -0.733542
H       0.113362     -1.515729      0.252903
H       0.450728     -1.156446     -1.436439
H      -0.188000      1.252468     -1.084388
H      -2.022754     -0.990059      0.018485
H      -2.318913     -0.056981     -1.499439
H      -1.087685      1.974984      1.084941
H      -0.884913      0.273154      1.744879
