9
Extracted from Q-Chem output
O      -1.865647     -0.388309      0.145471
C      -0.653168      0.217023      0.070384
N       0.278701     -0.618958     -0.484856
C       1.626427     -0.500557     -0.299295
N       1.848284      0.711812     -0.209442
N      -0.461093      1.413458      0.445089
H      -1.787582     -1.288123     -0.183123
H       2.313634     -1.340241     -0.381228
H      -1.290115      1.791368      0.895197
