15
Extracted from Q-Chem output
C      -2.016993      0.635147      0.060516
N      -0.717795      0.394640     -0.534426
C      -0.338598     -0.987831     -0.739908
C       0.278931     -0.185854      0.335975
C       1.651274      0.411372      0.146820
O       2.257635      0.341046     -1.018882
H      -2.768072      0.674368     -0.729385
H      -2.309507     -0.141178      0.783634
H      -2.008079      1.599352      0.570855
H      -1.046434     -1.755241     -0.438549
H       0.236286     -1.180362     -1.637088
H      -0.005497     -0.387968      1.367464
H       2.378824     -0.460189      1.032447
H       1.802062      1.315010      0.762796
H       2.686607     -0.359883      0.112223
