14
Extracted from Q-Chem output
C       1.125340      0.551360      0.205405
C       1.038797     -0.988023      0.022939
C      -0.359184     -0.825088     -0.588311
O      -1.407221     -0.869704      0.390369
C      -1.441561      0.565564      0.485354
C      -0.255743      0.712576     -0.466233
H       1.175867      0.908539      1.235297
H       1.939982      1.009300     -0.354631
H       1.054628     -1.592722      0.929259
H       1.774283     -1.379569     -0.681108
H      -0.614070     -1.379483     -1.492870
H      -1.293948      0.918614      1.511122
H      -2.386446      0.960549      0.099548
H      -0.350724      1.408087     -1.296141
