14
Extracted from Q-Chem output
C       1.094255      0.583369      0.321433
C       1.019861     -0.879333     -0.125043
C      -0.398956     -0.856254     -0.654186
O      -1.395527     -0.708987      0.311870
C      -1.382180      0.711567      0.482826
C      -0.172588      1.147542     -0.342531
H       1.028394      0.695000      1.408034
H       2.001599      1.088757     -0.008343
H       1.169777     -1.645150      0.639223
H       1.713302     -1.078133     -0.945131
H      -0.678028     -1.607890     -1.398475
H      -1.268334      0.997889      1.534844
H      -2.332327      1.108790      0.113528
H      -0.388711      0.227941     -1.318107
