12
Extracted from Q-Chem output
C      -1.932906     -0.432016      0.193068
C      -0.519727      0.000929      0.243913
C      -0.040456      1.332788      0.408799
C       1.303282      1.090627      0.382542
C       1.648690     -0.345094      0.204681
O       0.366116     -0.969875      0.121476
H      -2.041066     -1.511399      0.108035
H      -2.435177     -0.060858      1.087637
H      -2.410897      0.065837     -0.652926
H       2.092033      1.831368      0.478919
H       2.180878     -0.793125      1.047456
H       2.190445     -0.570097     -0.717266
