13
Extracted from Q-Chem output
C      -0.123842      1.352903     -0.689838
C      -0.223253     -0.104998     -0.247826
C      -0.913661     -0.306505      1.168364
N      -1.364994     -0.812464     -0.443137
C       1.076791     -0.801570     -0.337396
C       2.133232     -1.352979     -0.455079
H       0.152555      1.381576     -1.744620
H       0.639228      1.893125     -0.126890
H      -1.092996      1.837414     -0.571570
H      -0.251027     -0.900898      1.788409
H      -1.214822      0.664517      1.546283
H      -1.847966     -0.917628      1.033924
H       3.065472     -1.856288     -0.559008
