11
smiles: [C:1]1([H:6])([H:7])[O+:2]=[C-:3][C:4]([H:10])=[C:5]1[H:11].[H:8][H:9]
C        0.01569700      -1.38885000       0.08483200
O       -0.87960700      -0.26176000       0.02923900
C       -0.26790900       0.88446200      -0.16722300
C        1.17111600       0.54294400      -0.25739600
C        1.34352100      -0.77246200      -0.11264700
H       -0.10611200      -1.87668400       1.05478400
H       -0.26843600      -2.09230000      -0.70121600
H       -3.07866700       2.87039800       0.69955700
H       -2.45803900       2.55243900       0.43858200
H        1.93894400       1.28470600      -0.42006600
H        2.26710100      -1.33501400      -0.12866300
