11
Extracted from Q-Chem output
O      -2.849449     -0.642196     -1.422778
C      -1.843185     -0.411997     -0.900892
C      -0.735937     -0.117895     -0.251268
C      -0.164147      1.215665     -0.053245
N       1.038363      1.171787      0.347957
C       1.435402     -0.232269      0.400402
N       0.227958     -1.064991      0.224749
H       1.930149     -0.466008      1.343687
H      -0.688595      2.147577     -0.232891
H       2.148578     -0.408716     -0.411451
H      -0.071119     -1.430053      1.119639
