11
Extracted from Q-Chem output
O      -2.502949     -0.516929      0.561152
C      -1.407105     -0.341142      0.239524
C      -0.470192     -0.143550     -0.946659
C      -0.009565      1.211411     -0.631672
N       0.986541      1.195900      0.203023
C       1.149559     -0.154499      0.492459
N       0.659263     -0.889492     -0.580286
H      -0.155830     -0.294655      1.150343
H      -0.500878      2.128088     -0.932602
H       2.022720     -0.473593      1.051185
H       0.545548     -1.885298     -0.470322
