11
Extracted from Q-Chem output
O       2.282941      0.689406     -0.267981
C       1.118211      0.412869     -0.102429
C       0.513995     -0.978816     -0.358290
N      -0.855856     -0.846470      0.097518
C      -1.089162      0.459421      0.409158
C       0.012732      1.239151      0.359452
H       1.065817     -1.739551      0.195371
H       0.572885     -1.206525     -1.425638
H      -1.588920     -1.427637     -0.264596
H      -2.092126      0.759271      0.685692
H       0.081082      2.280271      0.627461
