14
Extracted from Q-Chem output
C      -1.637695     -1.000396      0.298246
C      -0.933023      0.163387     -0.337039
C      -0.424807      1.409160      0.437978
N       0.408179      2.033390     -0.368330
C       0.539852      0.444887     -0.111041
O       0.180191      0.779073      1.480451
C       1.883678     -0.117923     -0.383250
H      -1.305560     -1.148981      1.323304
H      -2.715239     -0.831296      0.297361
H      -1.446312     -1.911402     -0.273093
H      -1.232425      0.424294     -1.347502
H       1.912353     -1.159253     -0.065073
H       2.633231      0.464422      0.143439
H       2.061772     -0.058499     -1.455972
