17
Extracted from Q-Chem output
C      -1.657318     -0.797855      0.223589
C      -1.973605      0.366253     -0.637736
C      -0.608673      0.287862      0.147631
C       0.642930      0.021077     -0.668617
C       1.701315     -0.631399      0.169949
C       2.876550     -0.092038      0.450101
C      -0.781436      1.528105      0.805401
H      -1.413189     -1.734232     -0.264546
H      -2.212711     -0.890777      1.147628
H      -1.822854      0.307134     -1.707407
H      -2.744319      1.060196     -0.331050
H       0.404834     -0.631626     -1.516513
H       1.008901      0.970847     -1.061368
H       1.454754     -1.610385      0.576199
H       3.152838      0.887360      0.074590
H       3.601630     -0.606692      1.068692
H      -1.662252      1.441220      1.466800
