11
Extracted from Q-Chem output
O       1.613670      0.197411     -0.856567
C       0.398055      0.167924     -0.142905
C      -0.249957     -1.156189     -0.381008
N      -1.371672     -1.439705      0.124192
C      -0.396468      1.391044      0.098781
C       0.219736      0.903970      1.127118
H       2.032682      1.046393     -0.704186
H       0.327631     -1.834915     -1.016697
H      -1.660560     -2.377968     -0.139071
H      -1.059606      2.125794     -0.325552
H       0.442670      0.938318      2.180221
