11
Extracted from Q-Chem output
O       1.676687      0.001888     -0.693975
C       0.490642      0.010636     -0.071869
C      -0.246971     -1.236058     -0.378461
N      -1.459485     -1.343248     -0.702905
C      -1.106233      1.296941      0.541607
C       0.178325      1.019341      0.842400
H       2.211092      0.741708     -0.385135
H       0.432668     -2.093505     -0.296442
H      -1.698191     -2.330225     -0.800539
H      -1.397815      2.350714      0.603559
H       0.970772      1.593509      1.340226
