16
Extracted from Q-Chem output
C       1.744600     -0.487699     -0.549096
C       0.593866      0.215900      0.068429
C      -0.724975     -0.340907      0.514275
C      -1.557892      0.826307      1.016090
C      -1.399885     -1.247660     -0.512750
C      -0.719298      1.872445      0.895023
N       0.555130      1.479175      0.324196
H       2.030731     -1.347207      0.059492
H       1.454339     -0.873855     -1.529431
H       2.613711      0.158564     -0.673430
H      -0.490136     -0.942295      1.408398
H      -1.650504     -0.683040     -1.412608
H      -2.330515     -1.623629     -0.091641
H      -0.772969     -2.097505     -0.795921
H      -0.821837      2.923427      1.128703
H       1.330058      2.103838      0.142854
