16
Extracted from Q-Chem output
C       2.054382     -0.534676     -0.247035
C       0.763163      0.015542      0.248255
C      -0.441244     -0.621534      0.642423
C      -1.451516      0.361225      1.033078
C      -1.790603     -0.643061     -0.585513
C      -0.794754      1.563378      0.724739
N       0.483278      1.323972      0.309528
H       2.892686      0.125592     -0.015195
H       2.256610     -1.499585      0.218696
H       2.044299     -0.691364     -1.331362
H      -0.469391     -1.669293      0.913999
H      -2.367783      0.201553     -0.934308
H      -2.451874     -1.429090     -0.244837
H      -1.151871     -0.996009     -1.397461
H      -1.126244      2.584230      0.844153
H       1.156332      2.042750      0.087956
