12
Extracted from Q-Chem output
C      -0.891600      0.573364      0.269347
C      -0.688331     -1.258430     -0.145232
C       0.737836     -1.609119     -0.029738
C       0.705816     -0.306633      0.188391
C       1.745232      0.719485      0.282361
O       1.608281      1.912652      0.266380
H      -1.230272      0.569326      1.300535
H      -0.316993      1.487946      0.076316
H      -1.737501      0.614205     -0.412819
H      -1.125878     -1.302490     -1.137941
H      -1.349749     -1.571602      0.656527
H       2.729519      0.228266      0.365332
