14
Extracted from Q-Chem output
C      -1.279529     -0.255831      0.485639
C      -1.183352      1.260635      0.386791
C      -0.150844      0.412409     -0.235616
O      -0.125573      0.371484     -1.622677
O       1.090909      0.438466      0.371123
C       1.822855     -0.756819      0.226706
H      -1.066929     -0.703492      1.447606
H      -2.045173     -0.748236     -0.099943
H      -0.086827     -0.543759     -1.908193
H      -1.870333      1.763781     -0.279162
H      -0.905705      1.801141      1.280987
H       2.721624     -0.657547      0.832560
H       1.247390     -1.621514      0.579802
H       2.121079     -0.922969     -0.814085
