14
Extracted from Q-Chem output
C      -1.918077     -0.303541      0.257264
C      -1.109246      0.980801      0.339033
C       0.106345      0.339034     -0.166862
O       0.163712     -0.219986     -1.348032
O       1.178535      0.319430      0.554029
C       2.254952     -0.557485      0.172539
H      -1.955447     -0.844354      1.197542
H      -2.896745     -0.176363     -0.197376
H      -0.795351     -0.545165     -1.371502
H      -1.444617      1.734409     -0.377798
H      -0.938060      1.448178      1.312003
H       2.960788     -0.515430      0.996394
H       1.872049     -1.567571      0.037636
H       2.715277     -0.205285     -0.747949
