16
Extracted from Q-Chem output
C      -2.000327      0.730793      1.077878
C      -1.622520     -0.615331      0.595876
N      -0.654168     -0.094652     -1.304338
C       0.481831     -0.188110     -0.690954
O       0.495700     -0.517286      0.523575
O       1.628379      0.073231     -1.343572
C       2.825835     -0.072197     -0.592114
H      -2.383848      1.361797      0.281510
H      -2.787777      0.579896      1.828455
H      -1.166606      1.222308      1.574600
H      -1.253755     -1.306187      1.338513
H      -2.263638     -1.075369     -0.137479
H      -0.633785      0.178510     -2.277899
H       3.635101      0.183212     -1.273023
H       2.831924      0.598719      0.267633
H       2.941891     -1.098168     -0.240418
