16
Extracted from Q-Chem output
C       2.667987      0.787292      2.089924
C       1.710590      0.132921      1.205206
C       0.931548     -0.410011      0.473368
C      -0.035374     -1.059284     -0.411329
C      -1.413783     -0.447184     -0.311552
C      -1.815059      0.683969     -1.166623
N      -2.289292     -0.670319     -1.453162
H       2.387830      1.827039      2.266413
H       3.667589      0.776954      1.652473
H       2.715294      0.280898      3.055261
H      -0.094930     -2.124792     -0.170944
H       0.300564     -0.993117     -1.449205
H      -1.857186     -0.487199      0.679317
H      -1.110265      1.080853     -1.888606
H      -2.515221      1.408624     -0.766741
H      -3.250290     -0.786644     -1.158846
