16
Extracted from Q-Chem output
C       1.681767      0.822997      1.802543
C       1.095948     -0.093695      0.819270
C       1.109997     -0.961678     -0.064372
C       0.590441     -1.796933     -0.998358
C      -1.298999     -0.288939      0.018002
C      -1.249861      0.862625     -0.863281
N      -2.456475      0.375281     -0.169044
H       1.419023      1.859582      1.577776
H       2.772715      0.751184      1.814151
H       1.319352      0.605423      2.809047
H       0.447338     -2.848144     -0.775939
H       0.614151     -1.524353     -2.047089
H      -0.970329     -1.097143      0.624219
H      -1.278458      0.749119     -1.940611
H      -0.767570      1.761827     -0.495051
H      -2.933732      0.884370      0.562118
