12
Extracted from Q-Chem output
N      -1.970868     -0.671258      0.811064
C      -0.816954     -0.217184      0.230432
N       0.339181     -0.881128      0.340247
C       1.243345     -0.086318     -0.228204
O       2.531783     -0.424777     -0.313022
C       0.677039      1.091237     -0.700295
N      -0.775515      0.954597     -0.420243
H      -1.975018     -1.651417      1.032724
H      -2.822154     -0.319204      0.409407
H       2.630055     -1.280249      0.117609
H       1.019515      1.783471     -1.449751
H      -0.011955      1.683749      0.211317
