15
Extracted from Q-Chem output
O      -0.301302     -0.722037     -1.843959
C      -0.922800     -0.241760     -0.741406
C       1.396437     -0.445312      1.505365
C       1.818797      0.373796      0.553760
O       1.073966      1.083258     -0.334318
C      -2.005676     -0.818556     -0.240086
C      -0.337824      1.039952     -0.201192
H       0.543532     -0.268608     -1.936964
H       2.132312     -0.923349      2.135541
H       0.355657     -0.681592      1.675341
H       2.871178      0.568950      0.383597
H      -2.481417     -0.405952      0.638313
H      -2.436308     -1.696083     -0.701916
H      -0.694484      1.880270     -0.799799
H      -0.635765      1.195483      0.838097
