13
Extracted from Q-Chem output
O      -3.200000      0.158529     -0.525413
C      -2.025064     -0.063871     -0.456961
C      -0.862922      0.690371      0.258011
C      -0.065911     -0.447343     -0.345343
C       2.033843      0.103150      0.521449
O       1.219065     -0.727540     -0.300201
C      -1.094804     -1.076514     -0.956007
H      -0.929555      0.716527      1.347257
H      -0.657942      1.689137     -0.132019
H       1.875207      1.157042      0.288435
H       3.063134     -0.168376      0.303028
H      -1.183980     -1.965306     -1.561667
H       1.822846     -0.079662      1.576657
