13
Extracted from Q-Chem output
O      -2.910207     -0.444707      0.101510
C      -1.731857     -0.286169     -0.095780
C      -0.837288      0.985081      0.054960
C       0.294359      0.072401     -0.384947
C       1.757499      0.024676      0.391197
O       1.487782      0.378603     -0.967515
C      -0.619693     -1.077136     -0.538825
H      -0.774809      1.451524      1.037594
H      -1.038403      1.733373     -0.711364
H       1.987001      0.851706      1.053188
H       2.364926     -0.873534      0.474165
H      -0.466190     -2.059581     -0.958556
H       0.477551     -0.765679      0.548900
