13
Extracted from Q-Chem output
O       2.140681      0.925098     -1.567746
C       1.910847      0.379402     -0.336029
C       0.744260     -0.073912      0.084928
O       0.461869     -0.651006      1.326598
C      -0.871414     -0.924632      0.880431
C      -1.599518      0.331117      0.582456
C      -0.637667     -0.243584     -0.441843
H       2.796718      0.330867      0.281822
H       1.306646      1.030988     -2.031294
H      -1.304222     -1.880855      1.136942
H      -2.646881      0.211291      0.332620
H      -1.341508      1.237608      1.116710
H      -0.929976     -0.538485     -1.438736
