13
Extracted from Q-Chem output
O       2.071612      0.941242     -1.501351
C       1.699814      0.814376     -0.288374
C       0.824724     -0.299282     -0.221371
O       0.576921     -1.037974      0.963812
C      -0.819084     -1.047613      0.676648
C      -1.387583      0.326132      0.691877
C      -0.661043     -0.178126     -0.536003
H       2.087120      1.485543      0.477722
H       1.509124     -0.172336     -1.564911
H      -1.362609     -1.967016      0.843212
H      -2.463853      0.384550      0.582038
H      -0.943315      1.081414      1.329802
H      -1.121025     -0.251181     -1.509284
