12
Extracted from Q-Chem output
C       1.816236      0.426911     -0.405261
C       0.428967      0.029929     -0.617218
O       0.801811      1.397387     -0.598007
C      -0.429282     -0.437669      0.522091
C      -1.908764     -0.280127      0.276560
O      -2.395255      0.034390     -0.772843
H       0.138456     -0.334117     -1.598822
H       2.238299      0.387711      0.596053
H       2.532694      0.332794     -1.215950
H      -0.254143     -1.501082      0.728959
H      -0.169386      0.097506      1.440529
H      -2.553796     -0.499234      1.152996
