16
smiles: [C:1]([C:2](=[C:3]=[C:4]([H:11])[H:12])[H:14])([H:8])([H:9])[H:10].[C:5]1([H:13])=[C:6]([H:15])[N:7]1[H:16]
C        2.30892200       0.95883400       1.03531200
C        1.11492900       0.24225900       0.47184200
C        0.94360200      -1.04683300       0.50442600
C        0.77335300      -2.33596500       0.53966900
C       -2.22251000      -0.08160700      -0.56839100
C       -3.03632700       0.86716300      -0.36151900
N       -1.77637200       1.25865500      -1.08125300
H        2.00387100       1.67733100       1.79960600
H        2.82881900       1.51698100       0.25314700
H        3.01209500       0.25749600       1.48287500
H        0.26834200      -2.81160800       1.37272900
H        1.13047300      -2.97123700      -0.26290300
H       -1.81520900      -1.06851400      -0.46063500
H        0.34042700       0.84437600       0.00359200
H       -3.89360200       1.35043100       0.06618500
H       -1.98647200       1.29591400      -2.08026200
