14
smiles: [C:1](=[C:2]([H:10])[H:11])([H:8])[H:9].[O:3]([C:4]([C:5](=[O:6])[H:14])([H:12])[H:13])[H:7]
C       -1.69056300      -1.04405700      -0.41527200
C       -0.89130600      -0.89814700      -1.45804600
O       -0.04157900       1.80713200       0.60493100
C        1.19710500       1.16587800       0.42769700
C        1.32381900      -0.10675900       1.24073800
O        2.18530000      -0.92102500       1.06598800
H       -0.71436100       1.34330500       0.10439400
H       -1.35644300      -1.53283200       0.49281700
H       -2.71149700      -0.67953200      -0.42558000
H        0.12957300      -1.26282000      -1.44755500
H       -1.22538800      -0.40944800      -2.36617400
H        1.96901100       1.85570000       0.78047400
H        1.42079300       0.93927200      -0.62044500
H        0.55346600      -0.22864800       2.03247900
