14
Extracted from Q-Chem output
C      -2.035252     -0.311808     -0.733812
C      -0.874607     -1.064003     -0.496651
O      -0.187647      0.206090      0.763907
C       0.939092      0.948013      0.404216
C       2.208841      0.204366      0.755053
O       3.265245      0.386446      0.217951
H      -1.290638      0.430997      0.171040
H      -2.963541     -0.632711     -0.278125
H      -2.117567      0.227041     -1.669976
H      -0.873352     -1.897647      0.193528
H      -0.040878     -1.038184     -1.190648
H       0.958053      1.894556      0.960748
H       0.966036      1.200161     -0.666860
H       2.087108     -0.539995      1.569980
