19
Extracted from Q-Chem output
C      -2.756785      0.370896      0.018151
C      -1.722191     -0.443424      0.696266
C       0.214618     -0.378608     -1.282174
C       0.533844     -0.137843     -0.013471
C       2.907461      0.215107     -0.565061
C       2.027245     -0.033173      0.524166
C      -0.478446      0.080079      1.156761
H      -3.028416     -0.029666     -0.966493
H      -2.432970      1.404637     -0.113492
H      -3.688840      0.383046      0.598718
H      -1.891686     -1.511152      0.785251
H      -0.809845     -0.463565     -1.614736
H       0.998389     -0.490246     -2.020281
H       3.058521      1.220705     -0.934410
H       3.348097     -0.595960     -1.129336
H       1.983886      0.774674      1.264948
H       2.202346     -0.976484      1.051648
H      -0.488210      1.153843      1.370006
H      -0.045721     -0.445994      2.016033
