14
smiles: [C:3]1([H:10])([H:11])[N:4]([H:12])[C@:5]1([C:6](=[O:7])[H:14])[H:13].[O:1]([C:2][H:9])[H:8]
O       -1.21575600      -2.13685700       1.32037100
C       -0.74870700      -2.12766100       0.10558400
C       -0.55184300       1.19494200      -0.29096200
N        0.50337600       1.96037000      -0.90932100
C        0.69614700       0.52591700      -0.76382800
C        1.62411100       0.05465200       0.29510800
O        2.02000800       0.76153600       1.18579300
H       -2.17264100      -1.99767500       1.39954800
H       -1.61708900      -1.95032000      -0.58047900
H       -0.68760100       1.26976100       0.78263700
H       -1.45544700       1.07933100      -0.87698800
H        1.05514500       2.42428000      -0.19236100
H        0.67315300      -0.05602700      -1.67809500
H        1.93839300      -1.00442300       0.22884000
