14
Extracted from Q-Chem output
O      -0.713603     -1.291509      1.322914
C      -0.388320     -1.224974      0.021554
C      -0.901073      0.842924     -0.332749
N       0.260799      1.632493     -0.636979
C       0.584620      0.220717     -0.693477
C       1.636977     -0.268338      0.247694
O       1.874246      0.288169      1.290740
H      -1.653641     -1.145697      1.486524
H      -1.213730     -1.409058     -0.670782
H      -1.269139      0.892205      0.683258
H      -1.652617      0.823249     -1.114866
H       0.666912      1.981024      0.230047
H       0.656731     -0.178023     -1.700043
H       2.155430     -1.172124     -0.104302
