11
Extracted from Q-Chem output
C      -0.922531      0.012248     -0.046464
C      -0.546433     -0.370437     -1.469110
O      -1.178742     -1.152084     -2.117139
C       0.170982     -0.297679      0.945478
O       0.102570     -1.161448      1.776826
C       1.447115      0.549941      0.884207
O       1.605694      1.420284      0.077364
H      -1.085235      1.095354     -0.045014
H      -1.829056     -0.514902      0.242361
H       0.347612      0.133292     -1.881270
H       2.199440      0.280887      1.648333
