13
Extracted from Q-Chem output
C      -1.596594      0.607894      0.109508
C      -0.632660     -0.572120      0.145780
C       0.691699     -0.201390     -0.461716
C       1.725139      0.491437      0.332710
O       1.762231     -1.147401     -0.264710
H      -2.554572      0.344408      0.558514
H      -1.188913      1.457502      0.661004
H      -1.789680      0.933056     -0.915705
H      -1.051244     -1.427549     -0.392594
H      -0.457994     -0.885797      1.178075
H       0.646523      0.030814     -1.525500
H       2.434779      1.011596     -0.318571
H       2.029128     -0.821069      0.747903
