13
smiles: [H:7][H:8].[O:1]=[C:2]1[C:3]([H:9])([H:10])[C@@:4]2([H:11])[N:5]([H:12])[C@@:6]12[H:13]
O        1.99067600       0.50322200       1.04695900
C        0.89648700       0.14754000       0.74018900
C        0.31152800      -1.20580400       0.27647000
C       -0.94278900      -0.42271100      -0.10502300
N       -1.44432300       0.13411800       1.14011200
C       -0.38470900       0.86913500       0.40360800
H        1.82863400       0.94262000      -1.97680800
H        1.30392100       0.78803100      -2.48193200
H        0.17618900      -1.97920900       1.03085400
H        0.88787700      -1.58462300      -0.56861000
H       -1.57558400      -0.56827400      -0.96819200
H       -2.31628000       0.62298300       0.95917400
H       -0.53127200       1.88878400       0.07661600
