13
Extracted from Q-Chem output
O       2.013046      0.690462      0.646989
C       0.943383      0.291129      0.024134
C       0.326352     -1.139597     -0.055182
C      -1.044317     -0.471488     -0.091349
N      -1.126497      0.273747      1.165242
C      -0.464831      0.892515      0.008867
H       1.903462      0.748283     -0.723918
H       1.213123      0.497397     -1.371721
H       0.526603     -1.736657      0.833299
H       0.612586     -1.681613     -0.954160
H      -1.926624     -0.789973     -0.626718
H      -2.044616      0.697833      1.250742
H      -0.787686      1.843567     -0.391049
