16
Extracted from Q-Chem output
C      -1.726890     -0.642788      1.066112
C      -1.160519      0.990998     -0.950591
N      -0.934341     -0.274190     -0.097062
C       0.006465      0.842595     -0.037083
C       1.362157      0.559525     -0.621794
C       2.257761     -0.447512     -0.060858
O       1.519387     -0.702472     -1.249610
H      -1.995953      0.263296      1.606574
H      -1.168487     -1.310906      1.725151
H      -2.640672     -1.135168      0.733369
H      -1.955652      1.531154     -0.420947
H      -0.588389     -1.053436     -0.643869
H       0.049368      1.292172      0.957102
H       1.787827      1.390548     -1.178335
H       3.331585     -0.361376     -0.195095
H       1.940526     -1.015397      0.810990
