16
Extracted from Q-Chem output
C      -2.046567     -0.631909      0.560332
C      -1.209344      0.993721     -0.211556
N      -0.420131     -0.050071      1.103271
C       0.198319      0.913486      0.213214
C       1.191585      0.359875     -0.779543
C       2.345549     -0.422941     -0.352306
O       1.205244     -1.051881     -0.928549
H      -2.945553     -0.027693      0.584283
H      -2.055116     -1.254053      1.455744
H      -2.011037     -1.239774     -0.336046
H      -1.698826      1.713601      0.458786
H      -0.071405     -0.944272      0.750939
H       0.598495      1.756688      0.775729
H       1.248612      0.904900     -1.718571
H       3.243030     -0.449229     -0.962021
H       2.493185     -0.618827      0.706934
