15
Extracted from Q-Chem output
C      -0.262748      1.335405      0.118597
C      -0.656988      0.007370      0.577086
C      -1.074713     -1.063843     -0.425243
O       0.068137     -1.896636     -0.515418
C       0.947388     -1.238298      0.370587
C       1.754895     -0.239091     -0.089105
C       1.827835      0.970914     -0.374345
H      -1.534165      1.005097      0.405429
H      -0.134630      2.133769      0.836583
H      -0.423977      1.601390     -0.916849
H      -0.840178     -0.141625      1.633719
H      -1.311232     -0.619105     -1.399239
H      -1.939505     -1.648617     -0.095035
H       1.203827     -1.814866      1.254131
H       2.425899      1.731959     -0.836431
