12
Extracted from Q-Chem output
O      -2.108622      0.875935     -0.534446
C      -1.247144     -0.718880      0.226228
C      -0.175993      0.119054     -0.264428
N      -0.673774      1.234723     -0.701809
O       2.261034      1.552637      0.500974
C       2.221571      0.342886      0.431929
C       1.067680     -0.430730      0.038837
H      -2.484063      0.960231     -1.422490
H      -1.636144     -0.514093      1.215881
H      -1.484612     -1.686814     -0.208821
H       3.117713     -0.262172      0.678982
H       1.154974     -1.508973     -0.031493
