10
Extracted from Q-Chem output
O      -1.441266      2.320407     -0.991280
C      -1.295505      1.250682     -0.582400
C      -1.147358      0.034458     -0.112636
C       0.160187     -0.669184     -0.186625
O       1.245655      0.085821     -0.682889
C       1.291824     -0.324751      0.676591
H      -2.020541     -0.442874      0.309903
H       1.167200      0.471245      1.404393
H       0.108737     -1.686115     -0.570502
H       2.046229     -1.072204      0.904505
