10
Extracted from Q-Chem output
O      -0.552853      2.239092     -0.219615
C      -0.412508      1.070575      0.107157
C      -1.077156     -0.192661     -0.133969
C       0.092212     -1.037392     -0.092321
O       1.129167     -0.542956     -1.129712
C       1.077049      0.023223      0.082052
H      -2.072936     -0.399059     -0.509488
H      -0.334320      0.751102      1.231915
H       0.205946     -2.090141      0.113784
H       1.980742      0.156183      0.673357
