10
Extracted from Q-Chem output
C       0.750759      0.712231     -0.001146
C       2.031780      0.281577      0.145159
N      -0.328747     -2.676883      0.231336
N      -0.843168     -1.674270      0.160318
C      -1.388229     -0.504299      0.067682
C      -0.577456      0.700083      0.077727
H       1.353669      1.704045      0.044439
H       2.577625      0.309298     -0.811544
H      -2.461681     -0.493155     -0.029562
H      -1.116228      1.635417      0.116218
