9
Extracted from Q-Chem output
N      -0.817903      0.765296      0.141672
C       0.441386      1.158397      0.229159
C       1.146248     -0.144121     -0.012065
N       0.160930     -1.209986     -0.225008
C      -0.951286     -0.626984     -0.125019
H      -1.604414      1.385643      0.252418
H       1.808258     -0.061530     -0.879564
H       1.792805     -0.388977      0.836293
H      -1.926306     -1.089761     -0.222420
