11
smiles: [C+:3](=[C:4]([O-:5])[H:9])[C:6](=[O:7])[H:11].[O:1]=[C:2]([H:8])[H:10]
O       -1.39258500       1.78943300      -0.76830100
C       -1.77496000       1.71040000       0.36193100
C        0.40806400      -0.80841600       0.09013400
C        1.06256100      -2.06438500       0.35376500
O        0.56873600      -3.10735000       0.00025800
C        0.80863900       0.15850800      -0.79261800
O        1.60070200       0.72477700      -0.02384500
H       -1.34478900       0.98230300       1.07610500
H        2.01104800      -1.98995800       0.92011900
H       -2.57968900       2.36130600       0.75449100
H        0.55013200       0.44280400      -1.81500600
