15
smiles: [C:1]([O:2][C:3](=[O:4])[C:5](=[C:6]([H:13])[H:14])[H:11])([H:8])([H:9])[H:10].[O:7]([H:12])[H:15]
C       -2.17483200      -0.43598200       0.30206700
O       -0.78041700      -0.14344700       0.34909300
C       -0.22246700       0.19798100      -0.82074400
O       -0.83236600       0.25823600      -1.85553200
C        1.22463600       0.48368100      -0.65287100
C        1.96528900       0.83699500      -1.69122500
O        0.93411700      -0.42503900       2.73344000
H       -2.36923100      -1.26708800      -0.37587900
H       -2.45723100      -0.69836400       1.31830300
H       -2.73635600       0.43452000      -0.03762300
H        1.63094600       0.39009100       0.34659900
H        0.27028000      -0.33376100       2.04884000
H        1.52037400       0.91932500      -2.67616200
H        3.02158300       1.04969000      -1.58587900
H        1.17571000      -1.35217400       2.73217100
