15
Extracted from Q-Chem output
C      -2.651175     -0.256048      0.012901
O      -1.533787      0.571665      0.314876
C      -0.333597      0.090983     -0.033378
O      -0.223419     -0.983102     -0.641009
C       0.795538      0.855311      0.404052
C       2.024262      0.493929     -0.337306
O       2.241934     -0.893153      0.286734
H      -2.566836     -1.221971      0.512425
H      -3.523049      0.280609      0.379666
H      -2.734700     -0.422098     -1.061295
H       0.653610      1.844519      0.813580
H       1.555386     -0.402673      1.051438
H       1.954566      0.313380     -1.410734
H       2.903339      1.079217     -0.086147
H       1.524900     -1.392243     -0.186279
