18
Extracted from Q-Chem output
C       1.914598     -0.059287      0.215113
C       0.856397     -0.777117     -0.613012
C      -0.502992     -0.060548     -0.667611
C      -1.526545     -0.703056      1.892526
C      -0.446301      1.337530     -1.274700
C      -1.111483     -0.024206      0.683210
N      -1.604867      0.768534      1.508258
H       2.169746      0.913856     -0.207220
H       2.832032     -0.647894      0.257978
H       1.576877      0.104408      1.241431
H       0.699543     -1.782742     -0.212849
H       1.212076     -0.903976     -1.639245
H      -0.802209     -0.965808      2.658385
H      -2.466055     -1.246932      1.929095
H      -1.166319     -0.687171     -1.275748
H      -1.446841      1.760844     -1.367109
H       0.137934      2.015366     -0.651637
H       0.007694      1.304133     -2.266805
