12
Extracted from Q-Chem output
N       1.193496      1.462308     -0.207773
C       1.845543      0.493324      0.270170
C       0.972698     -0.724017      0.269435
O       0.179903     -0.792670      1.603183
C      -0.887011     -0.772377      0.872513
C      -0.159293      1.202092     -0.652558
C      -0.413585     -0.357311     -0.405488
H       1.366726     -1.725653      0.112876
H      -1.834015     -1.135154      1.267365
H      -0.301907      1.419169     -1.714275
H      -0.861457      1.818098     -0.085298
H      -0.851772     -0.838863     -1.276990
