12
Extracted from Q-Chem output
N       1.520954      1.466068     -0.287380
C       1.886660      0.434795      0.222719
C       1.012617     -0.721276      0.308281
O       0.095544     -0.670098      1.547201
C      -0.937777     -0.691053      0.755165
C      -0.379245      1.080519     -0.656055
C      -0.323391     -0.412632     -0.514380
H       1.424914     -1.727612      0.277145
H      -1.939417     -0.855486      1.137907
H      -0.859212      1.441834     -1.563459
H      -0.681446      1.640837      0.223628
H      -0.626865     -0.952225     -1.406857
