12
Extracted from Q-Chem output
C      -1.729831      0.231103     -0.566368
N      -0.857352     -0.836138     -0.976568
C       0.336394     -0.896675     -0.750974
N       1.046243     -0.316698      0.942180
C       1.674079      0.587393      0.274498
O       1.390162      0.613126     -0.959414
H      -2.767781     -0.067979     -0.703013
H      -1.562753      0.476408      0.487374
H      -1.541914      1.123908     -1.167214
H       1.060599     -1.648863     -1.020651
H       1.224625     -0.479892      1.922509
H       2.405897      1.287564      0.685381
