12
Extracted from Q-Chem output
C       1.153392      1.963879     -0.180556
C       1.256951      0.732452     -0.497526
C       0.761876     -0.640304     -0.625011
N       0.530512     -1.450138      0.566565
C      -0.626251     -0.935895     -0.168123
C      -1.423240      0.126443      0.386575
C      -2.067602      1.022728      0.850259
H       2.328287      1.019369     -0.740432
H       1.148471     -1.196564     -1.469962
H       0.681443     -0.889916      1.398709
H      -1.180314     -1.695352     -0.707517
H      -2.637705      1.821807      1.262440
