16
Extracted from Q-Chem output
C      -0.812040     -0.308033     -1.228127
C       0.261822     -0.003968     -0.199957
C       1.540590     -0.784896     -0.457341
C       0.315294      1.344751      0.478189
C      -0.040170      0.209783      1.240472
O      -1.652775      0.559463      1.565886
H      -1.116625     -1.360409     -1.202664
H      -1.694702      0.321723     -1.103999
H      -0.429191     -0.104387     -2.231185
H       2.263403     -0.644091      0.348082
H       2.007877     -0.435771     -1.381792
H       1.348538     -1.856576     -0.566161
H       1.211343      1.932369      0.627148
H      -1.301077      1.388954      0.964335
H       0.299576     -0.311168      2.124490
H      -2.237966     -0.011656      1.049872
