14
Extracted from Q-Chem output
C      -1.827942      0.479036      0.356244
C      -0.793947      1.127540     -0.521229
C       0.744396     -0.666206     -0.637242
N       0.299033      0.676140     -0.961009
C       1.754314     -0.624209      0.501578
H      -1.995478      1.107926      1.233738
H      -2.780261      0.422542     -0.176981
H      -1.557160     -0.518425      0.694336
H      -1.031939      2.154845     -0.811393
H       1.226309     -1.064729     -1.532910
H      -0.074192     -1.350845     -0.387024
H       1.285385     -0.274205      1.423929
H       2.173913     -1.615046      0.684173
H       2.569008      0.059898      0.260182
