13
Extracted from Q-Chem output
C       1.389839     -0.946397     -0.157720
C       0.058011     -0.281814     -0.032687
C      -0.324099      2.074889     -0.709757
N      -0.210583      0.794151     -0.953983
C      -0.877492     -0.622761      0.849487
O      -2.100694     -0.074731      0.987469
H       1.533594     -1.362351     -1.159345
H       2.199158     -0.234065      0.020712
H       1.484906     -1.762142      0.558805
H      -2.223472      0.619130      0.329901
H      -0.162153      2.188188      0.381373
H      -0.303210      0.504529     -1.921884
H      -0.705407     -1.416960      1.564994
