13
Extracted from Q-Chem output
C       2.364788     -0.066617     -0.780130
N       1.034615     -0.544213     -1.051228
C      -2.293783      0.446961      1.393377
C       0.103773     -0.187102     -0.260431
C      -1.243677     -0.613710     -0.456671
O      -2.229570     -0.276829      0.331324
H       2.735028      0.492056     -1.643717
H       3.037543     -0.917404     -0.643510
H       2.428295      0.577123      0.109337
H      -3.277960      0.532477      1.822115
H      -1.412580      0.915885      1.805183
H       0.315198      0.465031      0.599358
H      -1.542819     -1.249365     -1.274008
