13
Extracted from Q-Chem output
C       1.999767      0.162698     -0.557066
N       0.581118      0.383744     -0.625596
C      -1.557757      0.481737      0.742510
C      -0.134996     -0.294942      0.262131
C      -1.307881     -1.007556     -0.311984
O      -2.377838     -0.625177      0.446168
H       2.530485      1.016639     -0.982763
H       2.308680     -0.723941     -1.129781
H       2.351471      0.005130      0.477142
H      -1.530806      0.730726      1.800652
H      -1.701147      1.315960      0.065453
H       0.324709     -0.753722      1.152739
H      -1.466957     -1.116999     -1.388607
