13
Extracted from Q-Chem output
O       0.999353      1.051421     -1.590682
C       0.738584      0.457436     -0.439392
C       0.674313     -1.040941     -0.154728
C      -0.715640     -0.893449      0.523919
C      -0.763633      0.593952      0.230472
N       0.536768      1.128185      0.794941
H       0.644456     -1.615786     -1.077605
H       1.486976     -1.382001      0.483377
H      -1.496231     -1.454199      0.012361
H      -0.726888     -1.132096      1.588159
H      -0.253028      0.871647     -1.237596
H      -1.606863      1.273425      0.277671
H       0.570030      2.124930      0.594062
