13
smiles: [C:4]([C:5]([O:6][H:13])([H:11])[H:12])([H:8])([H:9])[H:10].[N:1](=[C:2]=[O:3])[H:7]
N       -1.11811500      -1.34026000      -1.71524600
C       -0.78893100      -1.14211000      -2.86010800
O       -0.59687700      -0.98828200      -3.99352700
C       -0.40249000       1.23913000       0.92726900
C        0.86107200       0.41081000       0.93793300
O        0.51247300      -0.92931600       0.63532100
H       -0.53134600      -1.22039100      -0.91059000
H       -0.88163300       1.19033900      -0.05165100
H       -1.10834700       0.86822900       1.67184700
H       -0.17780400       2.28339000       1.15197000
H        1.57208500       0.80066400       0.19783300
H        1.34175400       0.47101700       1.92314100
H        1.30653600      -1.46485400       0.63869500
