11
Extracted from Q-Chem output
C      -1.050436     -0.406356     -0.047324
C       0.091460     -0.470162      0.934468
C       1.263447     -0.244262      0.103921
O       0.748277      0.909239     -0.863745
C      -0.519196      0.827024     -0.636233
H      -2.044653     -0.272035      0.373783
H      -1.074762     -1.236241     -0.771682
H       0.010729      0.062890      1.874278
H       1.527224     -1.036219     -0.602456
H       2.146124      0.186534      0.566600
H      -1.105372      1.693435     -0.940750
