18
Extracted from Q-Chem output
C      -1.936071     -0.072757     -0.691266
C      -1.591219      1.175559      0.109866
C      -0.461437      0.971974      1.101240
N       0.708796     -1.486155      1.088323
C       1.269169     -0.548896      0.451785
O       0.765647      0.695363      0.414961
C       2.531614     -0.608168     -0.357964
H      -2.762623      0.120006     -1.377227
H      -1.082671     -0.405664     -1.284962
H      -2.217769     -0.897126     -0.033947
H      -1.325456      1.994093     -0.565478
H      -2.465636      1.510694      0.676758
H      -0.279257      1.886428      1.668430
H      -0.677220      0.157021      1.791836
H       1.239880     -2.343483      1.002424
H       2.308615     -0.370051     -1.399168
H       2.986973     -1.595054     -0.305872
H       3.240095      0.137724      0.003576
