18
Extracted from Q-Chem output
C      -1.991424     -0.181042     -0.675717
C      -1.611799      1.041622      0.147650
C      -0.686785      0.775868      1.280888
N       0.627330     -0.963359      0.970747
C       1.403505     -0.206040      0.265719
O       1.056913      0.999329      0.137773
C       2.669966     -0.668617     -0.408349
H      -2.753526      0.075136     -1.413211
H      -1.119352     -0.570535     -1.200025
H      -2.382073     -0.979595     -0.042080
H      -1.215741      1.829880     -0.489601
H      -2.516716      1.437724      0.635535
H      -0.224146      1.632820      1.748450
H      -1.040245      0.044982      1.991109
H       0.869786     -1.941170      1.070150
H       2.579947     -0.504607     -1.482536
H       2.882815     -1.719358     -0.220968
H       3.503525     -0.062452     -0.053742
