11
Extracted from Q-Chem output
C       2.542316      0.853248     -0.433323
C       1.409554      0.707536     -0.079142
C      -0.110729     -0.439986      1.536256
C       0.028522      0.502800      0.335720
C      -0.901045     -0.063467     -0.701940
C      -1.490742     -1.100273     -0.148328
O      -1.022557     -1.303094      1.172314
H       3.553360      0.984595     -0.739084
H      -0.367967      1.454454      0.724646
H      -1.052567      0.317926     -1.698300
H      -2.233300     -1.806641     -0.482243
