17
Extracted from Q-Chem output
C      -1.765961      0.069279     -0.429680
C      -0.894157      0.484269      0.743045
C      -0.042505     -0.630446      1.344772
C       1.197699     -1.295636     -0.644726
C       1.554593     -0.041519     -0.820681
C       1.287619      1.005805      0.171805
O       0.038142      1.520525      0.366235
H      -2.534927     -0.626748     -0.088494
H      -1.190493     -0.407567     -1.222184
H      -2.262451      0.945957     -0.846672
H      -1.534888      0.947749      1.498163
H      -0.415020     -1.622046      1.125576
H       0.097913     -0.545774      2.427225
H       1.080060     -2.046036     -1.425243
H       2.144511      0.277257     -1.680035
H       1.091504     -0.083829      1.073538
H       2.015866      1.812748      0.245745
