12
Extracted from Q-Chem output
N      -1.544203     -0.797776      0.672619
C      -0.594694     -0.188615     -0.013073
O       0.077265     -0.946399     -0.848873
C      -0.200615      1.209921      0.172677
O       0.957993      0.731398      0.742486
C       1.452743     -0.464854     -1.017079
O       1.739761      0.162453     -1.972465
H      -2.149590     -0.266866      1.270620
H      -1.556706     -1.801978      0.729430
H      -0.087659      1.782343     -0.759548
H      -0.870617      1.753938      0.853981
H       2.092221     -1.017399     -0.332180
