17
smiles: [C:1]([O:3][H:11])([H:8])([H:9])[H:10].[C:2]1[C:4]([H:12])([H:13])[C:5]([H:14])=[C:6]([H:15])[C:7]1([H:16])[H:17]
C       -2.39759700      -0.83651700       0.77904700
C        0.07346900      -0.00613000      -1.33655900
O       -1.02850000      -0.77286000       1.11680000
C        0.30834000       1.33742700      -0.74068200
C        1.58150100       1.28626100       0.06734900
C        2.10812300       0.07139600      -0.00693700
C        1.23734600      -0.80760500      -0.86977500
H       -2.98137300      -1.39751300       1.51775400
H       -2.46620300      -1.35709000      -0.17548400
H       -2.84232700       0.15811600       0.66015800
H       -0.93836700      -0.31218800       1.95135600
H        0.32194000       2.06144500      -1.56842000
H       -0.58880400       1.62525100      -0.17579400
H        1.99315400       2.12428000       0.61560400
H        3.02307200      -0.25464600       0.47159000
H        0.84969400      -1.70695900      -0.37122600
H        1.73592000      -1.21588300      -1.76055200
