12
Extracted from Q-Chem output
O       2.735478     -0.021456     -0.622160
C       1.556849     -0.222059     -0.590749
C       0.639106      0.423989      0.425045
C      -0.462993      1.164939     -0.091040
N      -0.303123     -0.551700      1.060324
C      -1.272982     -1.083094      0.337533
O      -1.861890     -0.595155     -0.631974
H       1.055988     -0.906874     -1.304317
H       1.205257      0.892692      1.226199
H      -0.707691      1.220206     -1.140059
H      -1.040454      1.769708      0.594605
H      -1.578138     -2.069156      0.719402
