16
Extracted from Q-Chem output
C      -1.424993      1.371482     -0.556208
C      -0.138885      0.622882     -0.577305
C       0.015408     -0.774532     -0.613990
C      -0.713168     -1.290232      0.490100
C       1.453698     -1.024013     -0.500975
C       1.967628      0.132673     -0.072760
N       0.949263      1.141279      0.025147
H      -2.214238      0.813944     -1.060132
H      -1.310012      2.334119     -1.054636
H      -1.736811      1.577392      0.474391
H      -0.499468     -2.287696      0.862507
H      -1.741569     -0.980672      0.652005
H      -0.046779     -0.449076      1.443373
H       1.944191     -1.982438     -0.581632
H       2.972691      0.382145      0.230581
H       0.517964      0.471309      1.221952
