14
smiles: [C-:5]#[O+:6].[C:1]([C:2]([H:10])([H:11])[H:14])([H:7])([H:8])[H:9].[O:3]=[C:4]([H:12])[H:13]
C       -1.38625200      -0.92448000       0.08481400
C       -0.50961600      -0.92760900      -1.16016000
O       -0.04219100       2.46101500       0.11821100
C        1.12222300       2.24704800      -0.05023200
C        1.71191800      -0.37848100       1.86738800
O        1.45449700      -1.18842500       2.60211000
H       -1.25953500      -0.00419500       0.65836900
H       -1.14269500      -1.75918600       0.74503400
H       -2.44387600      -1.00750200      -0.17328300
H       -0.63659100      -1.84794500      -1.73356700
H       -0.75294100      -0.09289200      -1.82042200
H        1.90442000       2.77233900       0.53078300
H        1.48021400       1.51211800      -0.79661000
H        0.54800000      -0.84484300      -0.90196800
