14
Extracted from Q-Chem output
C      -1.703360     -0.567535     -0.037507
C      -0.466654     -0.722730     -0.867954
O       0.306077      1.274881     -0.692822
C       1.203357      1.373739      0.250774
C       1.471900     -0.095594      0.825150
O       2.130433     -0.570943      1.654222
H      -2.010408      0.474662      0.006643
H      -1.568099     -0.942700      0.978933
H      -2.512100     -1.149870     -0.491714
H      -0.121404     -1.759214     -0.940998
H      -0.495187     -0.270586     -1.846495
H       0.908709      1.924939      1.164377
H       2.216938      1.691831     -0.059010
H       0.666685     -0.646630      0.046237
