11
smiles: [O:1]([C:2](=[C:3]([H:9])[H:10])[H:8])[H:7].[O:4]=[C:5]=[N:6][H:11]
O        0.38244300       1.63716600      -0.00357100
C        1.16742600       1.04181200       0.92378300
C        1.53355300      -0.23141000       0.95542000
O       -3.10488700      -1.25598200      -2.22432300
C       -2.30520600      -0.98230900      -1.43007300
N       -1.40562200      -0.63047000      -0.70541800
H        0.11650000       0.98881800      -0.66120400
H        1.47958800       1.75608600       1.67678800
H        2.16769700      -0.58846600       1.75326900
H        1.21928100      -0.94289000       0.19966900
H       -1.32825900      -0.83838500       0.27287100
