10
Extracted from Q-Chem output
C      -1.589973      0.187707      0.734487
O      -0.168969     -0.002392      0.775577
C       0.373737     -0.361246     -0.361363
O      -0.144270     -0.592828     -1.400688
C       2.437219      0.594277     -0.205858
O       1.752324     -0.518743     -0.170935
H      -1.874284      0.464121      1.745154
H      -1.836530      0.982933      0.032610
H      -2.081955     -0.735584      0.431558
H       3.478547      0.232847     -0.067833
