10
Extracted from Q-Chem output
O       2.198553      0.974898      1.390732
C       1.780642     -0.078234      0.959371
C       0.872805     -0.202945     -0.165445
C      -1.405960     -0.044664     -0.973107
N      -0.379600     -0.004178      0.058729
H       2.163347     -1.051112      1.339482
H      -0.919376     -0.278093     -1.916384
H      -1.903040      0.924190     -1.040636
H      -2.147029     -0.809862     -0.737567
H      -0.722687      0.242503      0.985780
