15
Extracted from Q-Chem output
C      -1.064162      1.671220     -1.533977
C      -0.402909     -0.630707     -0.084781
C      -0.087511     -1.886273      0.661949
C       0.246915      0.527479      0.063709
O      -0.012159      1.685629     -0.599347
C       1.340500      0.694160      0.980078
C       2.253425      0.834035      1.742616
H      -1.108174      2.672305     -1.956894
H      -2.020158      1.436054     -1.054196
H      -0.875998      0.946848     -2.333464
H      -1.219654     -0.681693     -0.794322
H       0.736259     -1.744677      1.360207
H      -0.957894     -2.230431      1.226683
H       0.183833     -2.689308     -0.028373
H       3.063758      0.962765      2.420469
