10
Extracted from Q-Chem output
O       2.697082      0.819816      0.443688
C       2.025055      0.007532     -0.127200
C       0.552087     -0.038960     -0.065473
N      -0.198855     -0.901438     -0.668275
C      -1.480310     -0.546746     -0.315901
C      -1.421115      0.532507      0.495504
O      -0.123990      0.865827      0.662391
H       2.448111     -0.792234     -0.760242
H      -2.345563     -1.084589     -0.666688
H      -2.152502      1.138286      1.002196
