10
Extracted from Q-Chem output
O       3.358600      0.482232      0.345967
C       2.386998     -0.077196      0.123709
C       0.513542      0.574202      0.203186
N       0.160662     -0.628103     -0.173533
C      -1.213113     -0.678630     -0.274768
C      -1.659514      0.544315      0.058074
O      -0.583867      1.330601      0.357682
H       1.414852     -0.990299     -0.203961
H      -1.761563     -1.557075     -0.568795
H      -2.637194      0.990983      0.127181
