15
Extracted from Q-Chem output
C       2.206589      0.135523      0.275479
N       0.860971     -0.156757     -0.136365
C       0.320582     -1.390558     -0.310810
C      -1.063708     -1.495749     -0.377842
C      -1.415156     -0.169255     -0.164073
N      -2.669139      0.314979     -0.162913
C      -0.239048      0.757018      0.035618
H       2.848479     -0.699723     -0.003744
H       2.580330      1.032236     -0.222997
H       2.285994      0.281534      1.359312
H       1.033222     -2.209648     -0.394928
H      -0.227386      1.200195      1.037083
H      -3.412457     -0.350072     -0.285857
H      -2.893554      1.262580      0.072707
H      -0.213172      1.564019     -0.702377
