13
smiles: [C:1]([O+:2]=[C-:3][H:10])([H:7])([H:8])[H:9].[C:4]([C:5]#[N:6])([H:11])([H:12])[H:13]
C        1.92980600       0.56659000      -0.28040500
O        1.88951500      -0.86381200      -0.40282800
C        0.82854900      -1.37320300      -0.93177800
C       -2.25378100       0.05744200       0.28800700
C       -1.38123200       0.81896300       1.17056100
N       -0.69370300       1.41686300       1.86650700
H        1.00892300       0.98108200      -0.68802300
H        2.80158900       0.91995600      -0.82894100
H        2.03820500       0.80350900       0.77696600
H        1.04775400      -2.46549400      -0.90825800
H       -1.65587600      -0.54164700      -0.39782700
H       -2.88914200      -0.60397300       0.87591700
H       -2.88314200       0.73447400      -0.28841600
