12
Extracted from Q-Chem output
O      -2.230191      0.857779     -0.576658
C      -1.615131     -0.491828      0.153331
C      -0.181762     -0.305532      0.062002
N       0.352478      0.582980     -0.762642
N       1.679308      0.402671     -0.577476
C       1.877929     -0.566159      0.320417
N       0.735829     -1.040112      0.753954
H      -1.431374      1.243051     -0.996033
H      -2.401038     -0.099293     -0.994282
H      -2.024565     -0.460220      1.156484
H       2.346208      0.949610     -1.089111
H       2.859126     -0.892238      0.630787
