11
Extracted from Q-Chem output
O       0.827573      1.785226     -0.588018
C       0.100869      0.865625      0.102770
C      -1.504349     -0.681985     -0.096622
N      -0.313023     -1.387081      0.286826
C       0.739950     -0.512948      0.226392
O       1.907928     -0.746411      0.056612
H       1.508994      1.322460     -1.090899
H      -0.260334      1.288928      1.039853
H      -1.892079     -0.190490      0.811379
H      -0.891812      0.556149     -0.556968
H      -0.136069     -2.263547     -0.185467
