10
Extracted from Q-Chem output
O       2.170047     -0.190749      0.199776
C       0.847031     -0.188189      0.096928
C       0.217707      1.061543     -0.167764
N      -1.068213      1.105710     -0.273150
N      -1.688880     -0.065352     -0.118001
C      -1.185852     -1.300461      0.133168
N       0.186336     -1.295787      0.237551
H       2.431899     -1.104802      0.379526
H       0.775561      1.981788     -0.283059
H      -2.689491      0.012873     -0.207901
