10
Extracted from Q-Chem output
O       2.120476     -0.250336      0.234955
C       0.803677     -0.171508      0.103268
C       0.253460      1.126953     -0.128175
N      -1.026611      1.301811     -0.230473
N      -1.757388      0.209777      0.074438
C      -1.257070     -1.041938      0.160540
N       0.083791     -1.257434      0.097188
H       2.346396     -1.187741      0.307806
H       0.904897      1.974641     -0.305821
H      -2.475481     -0.687653     -0.316654
