16
Extracted from Q-Chem output
C      -1.909750     -0.855672     -0.679879
C      -0.588200     -0.128210     -0.522505
O      -0.813853      1.322114     -0.636479
C       0.079738     -0.467050      0.753831
N       1.455964     -0.217746      0.850630
C       2.182885      0.748737      0.376277
O       1.730903      1.755092     -0.339581
H      -1.745714     -1.926977     -0.807757
H      -2.444682     -0.478936     -1.551455
H      -2.533709     -0.707472      0.204705
H       0.034764     -0.320413     -1.409465
H      -1.192532      1.573512      0.215029
H       0.738921      1.707908     -0.481910
H      -0.177559     -1.416698      1.202033
H       1.970313     -0.849171      1.446541
H       3.236052      0.774587      0.617826
