16
Extracted from Q-Chem output
C      -1.889632     -0.938545     -0.500120
C      -0.611793     -0.112901     -0.571627
O      -0.926198      1.201101     -1.082619
C       0.098365     -0.068007      0.759110
N       1.515676     -0.294990      0.696842
C       2.301152      0.663756      0.317238
O       1.793620      1.813662      0.019704
H      -1.666931     -1.989578     -0.304608
H      -2.445481     -0.864719     -1.435320
H      -2.530586     -0.574736      0.308755
H       0.037237     -0.524573     -1.354997
H      -1.422605      1.640418     -0.385496
H       0.817073      1.702235      0.275688
H      -0.325932     -0.733005      1.505000
H       1.948852     -1.152886      1.011159
H       3.376117      0.546854      0.274261
