15
Extracted from Q-Chem output
C       1.272138     -0.620535     -0.535125
C       0.237452      0.292153      0.124711
N       0.397048      1.643221     -0.432677
C      -1.162319     -0.137789      0.146058
C      -1.356434     -1.540617      0.512491
C      -0.453050      2.611455     -0.069586
N      -1.163371      3.471491      0.218563
H       1.282801     -1.605653     -0.073120
H       1.049158     -0.727971     -1.597208
H       2.274499     -0.199779     -0.439582
H       0.422189      0.314260      1.223044
H       1.350344      1.960819     -0.519048
H      -0.551744     -2.075007      1.033926
H      -2.320131     -1.716055      0.990457
H      -1.457778     -1.989639     -0.493342
