15
Extracted from Q-Chem output
C       1.405739     -0.713565     -0.596524
C       0.742090      0.240314      0.379414
N       0.505209      1.567382     -0.205616
C      -0.707340      0.092563      0.773440
C      -1.479831     -1.066771      0.315991
C      -0.877743      1.744814      0.004621
N      -1.898170      2.262592     -0.274405
H       1.447011     -1.721927     -0.178603
H       0.858418     -0.744152     -1.539252
H       2.427164     -0.397917     -0.814239
H       1.320253      0.299445      1.309932
H       1.042526      2.329322      0.187845
H      -1.165663     -1.874616      0.995754
H      -2.552395     -0.918031      0.427565
H      -1.246461     -1.419098     -0.696362
