16
smiles: [C:1]1([H:8])=[C:3]([H:11])[C:2]1([H:9])[H:10].[C:4](=[C:5]([H:13])[H:14])([C:6]([H:7])([H:15])[H:16])[H:12]
C        2.48950200       1.23337200      -0.23175800
C        2.31979400      -0.09061900       0.45366600
C        1.41419800       1.10557500       0.45949400
C       -1.49413600      -0.68914600       0.25291200
C       -2.45693000       0.05517900       0.77411500
C       -1.17523700      -0.78545400      -1.20490900
H       -0.14320300      -0.48229200      -1.39967400
H        3.12137900       1.82918900      -0.86583000
H        2.04809200      -0.96846300      -0.13134100
H        2.91495300      -0.31942500       1.33683200
H        0.48962300       1.51591000       0.82447000
H       -0.87516800      -1.28661800       0.91851000
H       -2.63873900       0.08133200       1.84167500
H       -3.09993400       0.66781800       0.15019300
H       -1.27373700      -1.81549700      -1.55761800
H       -1.83620200      -0.15480700      -1.80100000
