12
smiles: [C:1](=[C:2]1[C:3]([H:10])([H:11])[O:4]1)([H:8])[H:9].[C:5](=[O:6])([H:7])[H:12]
C       -1.65480400      -0.74501500      -0.18622500
C       -1.01323200       0.37858900       0.03574800
C       -0.36665900       1.61136700      -0.29268000
O       -0.51907700       1.09084900       1.06468800
C        1.97304800      -1.04235100       0.33033300
O        2.35539800      -0.26097700      -0.49015300
H        2.13913300      -2.13174000       0.22358200
H       -1.93189100      -1.39536700       0.63167600
H       -1.90902000      -1.02495500      -1.19754900
H        0.65397500       1.61062400      -0.66076400
H       -0.95674200       2.49754000      -0.50142300
H        1.43252300      -0.71784700       1.24026600
