13
Extracted from Q-Chem output
C      -1.454447      1.023096      0.074287
C      -0.576677     -0.160628      0.449230
O      -1.254564     -1.360358      0.189379
C       0.720679     -0.092538     -0.314556
O       1.119871     -1.131989     -1.013661
C       1.777645      0.885167     -0.121879
C       2.331142     -0.316597     -0.212064
H      -2.387238      0.962680      0.633448
H      -1.688072      0.997800     -0.990908
H      -0.951589      1.960336      0.310461
H      -0.311350     -0.086128      1.512939
H      -0.622433     -2.003479     -0.148245
H       3.026296     -1.035666      0.195594
