14
Extracted from Q-Chem output
C       1.700752      0.104493     -0.157139
C       0.253182     -0.042034      0.238375
O      -0.009638     -0.461024      1.507439
C      -0.695193     -0.837925     -0.671075
O      -1.905801     -0.442401      0.022607
C      -0.645158      1.168902      0.277595
H       1.815394      0.467243     -1.182089
H       2.181768     -0.871880     -0.070842
H       2.207468      0.786281      0.526187
H      -1.602925     -0.658875      0.953623
H      -0.559157     -1.920559     -0.642026
H      -0.756002     -0.477579     -1.698895
H      -0.647337      1.723971      1.209228
H      -1.231559      1.567328     -0.543209
