13
Extracted from Q-Chem output
C       1.686432      0.513740     -0.558906
N       0.261678      0.776264     -0.682969
C      -0.471726      1.103410      0.555900
C      -0.618765     -0.159863     -0.142737
C      -1.065491     -1.389532     -0.268733
O      -1.993610     -1.982127      0.539061
H       2.229721      1.459069     -0.582573
H       2.010170     -0.090168     -1.406953
H       1.933293     -0.024972      0.366394
H       0.095529      1.104722      1.484898
H      -1.212198      1.890084      0.460801
H      -2.264752     -1.354695      1.213562
H      -0.730093     -2.047700     -1.059202
