13
Extracted from Q-Chem output
C       1.787698      0.449366     -0.340940
N       0.364569      0.479555     -0.636343
C      -0.478247      1.018633      0.394742
C      -0.419891     -0.461848      0.133460
C      -1.522069     -1.178228     -0.391990
O      -1.958758     -1.933639      0.525654
H       2.228376      1.412053     -0.606136
H       2.259023     -0.326193     -0.945321
H       1.992413      0.236972      0.716737
H      -0.021405      1.349682      1.324028
H      -1.318014      1.616349      0.055675
H      -0.997659     -1.505490      1.123028
H      -1.982014     -1.200378     -1.380293
