11
Extracted from Q-Chem output
N       1.588587     -0.613320     -0.242915
C       0.325258      0.052106      0.025999
C      -0.176434      1.193411      0.540599
O      -1.517379      1.094833      0.452523
C      -1.806111     -0.130010     -0.125680
C      -0.687225     -0.837123     -0.419185
H       2.179154     -0.175876     -0.941956
H       2.132397     -0.877034      0.571692
H       0.219545      2.096759      0.972880
H      -2.864559     -0.303566     -0.240079
H       0.786819     -1.445152     -0.653481
