14
Extracted from Q-Chem output
C      -1.667758     -1.040071      0.164716
C      -0.258511     -0.581182      0.174215
C       0.319007      0.602832     -0.111601
N      -0.246740      1.785330     -0.600917
C       1.732329      0.369824      0.090634
C       1.946360     -0.964815      0.551340
O       0.689129     -1.510702      0.497312
H      -2.350731     -0.199035      0.041746
H      -1.848295     -1.747588     -0.647294
H      -1.907588     -1.542019      1.103349
H       0.073369      2.610682     -0.118067
H      -1.254557      1.770003     -0.622132
H       2.517096      1.115009      0.080887
H       2.239036     -0.539330     -0.672176
