15
Extracted from Q-Chem output
C       2.898630     -0.241520      0.221117
N       1.541044     -0.359473     -0.253842
C       0.817714      0.692686     -0.316598
C      -0.587904      0.686656     -0.439067
C      -1.392727     -0.450411     -0.005453
C      -2.872160     -0.346064      0.240240
N      -0.705433     -1.478288     -0.071966
H       3.214633      0.792736      0.411074
H       3.578646     -0.702952     -0.497667
H       2.989492     -0.802721      1.154593
H       1.267561      1.692037     -0.237669
H      -1.071807      1.413383     -1.087478
H      -3.354721      0.133334     -0.612489
H      -3.034042      0.277863      1.120530
H      -3.310255     -1.329521      0.398625
