13
Extracted from Q-Chem output
N      -2.126589      0.553715     -0.584453
C      -0.856973      0.153740     -0.192730
C      -0.454505     -1.166048      0.043568
N       0.863145     -1.240418      0.333295
C       1.328591      0.098645      0.226697
O       2.522110      0.449485      0.768444
C       0.269862      0.963870     -0.074990
H      -2.860929     -0.088433     -0.337863
H      -2.364688      1.501203     -0.344819
H      -1.031350     -2.068082     -0.100596
H       1.494475     -0.783882     -0.709968
H       2.908484     -0.340842      1.157322
H       0.338828      2.034568     -0.182152
