17
Extracted from Q-Chem output
O       0.589703     -1.247589      1.492449
C       0.729682     -1.043392      0.233693
C       1.476234      0.216263     -0.201595
C       0.546190      1.406709      0.216171
C      -0.800229      1.229845     -0.364896
C      -0.406675     -1.265908     -0.667117
C      -1.635201      0.254523      0.070172
H       1.203905     -1.940143     -0.388339
H       2.418982      0.306068      0.335873
H       1.676345      0.238292     -1.277213
H       0.992104      2.353086     -0.089148
H       0.490369      1.350525      1.305942
H      -1.070178      1.806169     -1.246685
H      -0.278322     -1.081077     -1.730210
H      -1.116294     -2.046742     -0.406041
H      -2.609787      0.123928     -0.385866
H      -1.446673     -0.207371      1.043365
