14
Extracted from Q-Chem output
C      -2.110619     -0.397355     -0.500276
C      -0.617793     -0.269537     -0.655569
O      -0.174858      0.839918      0.153311
C       1.087786      1.124558      0.160559
C       1.943704     -0.667348      1.064796
O       2.569907      0.401165      1.301684
H      -2.629071      0.499432     -0.841459
H      -2.374303     -0.579159      0.541837
H      -2.462239     -1.243247     -1.092646
H      -0.058970     -1.136255     -0.290478
H      -0.324594     -0.072318     -1.690329
H       1.276095      2.028634      0.723499
H       1.690397      0.884653     -0.704417
H       2.194438     -1.463385      1.833257
