9
Extracted from Q-Chem output
O      -1.888420      0.292905     -0.060398
C      -0.542013      0.622043     -0.105183
C       0.335384     -0.582636      0.098704
O      -0.097263     -1.686792      0.276424
C       1.787555     -0.325564      0.065706
N       2.909677     -0.091323      0.034446
H      -1.956031     -0.657712      0.092141
H      -0.267459      1.071081     -1.070220
H      -0.281431      1.357998      0.668380
