15
Extracted from Q-Chem output
C      -0.860078      1.369255     -0.262244
C      -0.237382      0.007840     -0.088877
C      -1.065156     -1.005441      0.655041
N       0.539510     -0.568586     -1.244735
C       1.216910     -0.068507     -0.122987
C       2.445460      0.683830      0.098067
N       2.632339     -0.457136      0.670108
H      -1.127629      1.788793      0.709003
H      -1.773533      1.292540     -0.856974
H      -0.173765      2.060515     -0.751636
H      -2.043511     -1.110758      0.182361
H      -0.580053     -1.981518      0.654356
H      -1.218854     -0.687603      1.688286
H       0.624408      0.064662     -2.035393
H       1.654530     -1.127022      0.631066
