15
smiles: [C:1](=[O:2])([H:8])[H:9].[C:3]1([H:10])=[C:7]([H:15])[C:6]([H:13])([H:14])[C:5]([H:12])=[C:4]1[H:11]
C       -1.75781600      -1.11785800      -1.55706300
O       -2.15533900      -0.08508000      -2.01007100
C        0.57066100      -0.37366200       1.62182300
C        1.58085800      -0.50843500       0.56829200
C        1.39506200       0.45326800      -0.34405400
C        0.22593700       1.29816800       0.05806400
C       -0.22181200       0.66787500       1.34026800
H       -0.96714200      -1.15215400      -0.78305400
H       -2.15895800      -2.09512600      -1.88820400
H        0.49084700      -1.02163900       2.48444500
H        2.34862000      -1.27021900       0.54441500
H        1.97950100       0.61546800      -1.23881300
H        0.50781800       2.34834300       0.19650400
H       -0.56500600       1.28996600      -0.70057000
H       -1.05881500       1.01901200       1.92724800
