15
Extracted from Q-Chem output
C      -1.356885     -0.566509     -0.710654
O      -1.518127     -1.798573     -0.309540
C       0.157375     -0.846828      0.943754
C       1.409983     -0.686355      0.318816
C       1.423029      0.509322     -0.330863
C       0.222533      1.324140      0.005094
C      -0.706824      0.257946      0.558367
H      -0.505143     -0.377712     -1.427883
H      -2.249511     -0.075467     -1.154739
H      -0.109296     -1.645456      1.615672
H       2.194158     -1.428889      0.297058
H       2.227762      0.858624     -0.966549
H       0.486417      2.069192      0.765041
H      -0.187492      1.863305     -0.851682
H      -1.489382      0.546026      1.254620
