16
Extracted from Q-Chem output
C       2.564018      0.217634      0.389477
C       1.158035      0.275821     -0.099930
C      -0.681422     -0.771871     -1.209652
N      -1.056488     -0.154891     -0.099283
C      -2.377021      0.358754      0.184910
C       0.064836      0.008254      0.769026
O       0.005109     -0.114305      1.982359
H       2.679773     -0.542180      1.162871
H       2.876895      1.174885      0.821993
H       3.252191     -0.001407     -0.429879
H       0.944948      0.903332     -0.955341
H      -1.230910     -0.570144     -2.127966
H      -0.045928     -1.639459     -1.172444
H      -2.288839      1.166666      0.907961
H      -2.828617      0.727898     -0.738040
H      -3.013588     -0.421315      0.605390
