14
Extracted from Q-Chem output
C      -0.483155     -1.364004      1.229518
C      -0.307571      0.760557     -1.309472
C       0.528812      1.497757     -0.307048
O       0.413025      0.901347      0.981719
C       0.661637     -0.460745      0.970423
N       0.112582     -1.246755     -0.101918
C      -0.548775     -0.529839     -1.112807
H      -0.342846     -2.317513      1.724373
H      -1.434256     -0.868246      1.392215
H      -0.736323      1.291152     -2.148886
H       0.178699      2.523056     -0.187257
H       1.584493      1.538613     -0.608055
H       1.669104     -0.732553      1.278007
H      -1.209603     -1.118387     -1.737646
