11
Extracted from Q-Chem output
C       2.713603      0.427613      0.251845
C       1.520664      0.046640     -0.088314
C       0.199962     -0.246437      0.087070
N      -0.696183     -1.024084      0.748949
C      -1.194038     -0.160439     -0.351099
C      -1.931080      1.045456     -0.039652
N      -2.532767      1.987925      0.214996
H       3.569376      0.020800     -0.282946
H       1.232491     -0.591561     -1.053223
H      -0.914198     -0.789046      1.713028
H      -1.566886     -0.710132     -1.207872
