13
smiles: [C:5]1([H:11])=[N:7][C:6]1([H:12])[H:13].[N:3](=[C:4]([H:9])[H:10])[H:8].[O+:1]#[C-:2]
O        1.56107700       2.69303200       1.49711500
C        1.66322800       1.68061100       1.02105900
N        1.03342700      -1.20164700      -0.85182800
C        1.28737500      -1.83285500       0.20936100
C       -1.43621500       0.47143900      -1.24116600
C       -1.84393700       0.56074200       0.14217800
N       -0.97405700       1.48889100      -0.69558400
H        1.34308500      -0.23293000      -0.78379200
H        1.77446600      -1.39985500       1.08893400
H        1.00944700      -2.88530500       0.27653100
H       -1.42353300      -0.01755800      -2.20490800
H       -2.83053200       0.92871200       0.40479200
H       -1.33579900      -0.01922300       0.90582300
