13
Extracted from Q-Chem output
O       1.995690     -1.072823     -0.254824
C       1.104319     -0.413422     -0.721610
C      -0.101190      0.161392      0.188001
C      -0.056778     -0.058827      1.584366
C      -0.750150     -0.960089     -0.448920
C      -0.317843      1.528335     -0.395321
O      -0.892052      1.690574     -1.436837
H       1.107665      0.035985     -1.723302
H      -0.956842     -0.390690      2.084392
H       0.874502     -0.073025      2.140127
H      -1.571963     -0.832068     -1.147760
H      -0.505363     -1.949055     -0.089525
H       0.077573      2.362243      0.205328
