12
Extracted from Q-Chem output
C      -2.155065      0.257823      0.078359
C      -0.870398      0.897753      0.519086
C       1.797328     -1.538401      0.051933
N       2.177129     -0.409817     -0.442975
N       1.312382      0.681223     -0.731797
C       0.262223      0.738684     -0.094429
H      -2.916037      1.016367     -0.115842
H      -2.011482     -0.330403     -0.826371
H      -2.533297     -0.405801      0.858010
H       2.707558     -2.157566      0.106665
H       3.106204     -0.164801     -0.765543
H      -0.861908      1.507459      1.416505
