12
Extracted from Q-Chem output
C      -2.154660      0.072079      0.188879
C      -0.822642      0.326850      0.776866
C       1.522421     -1.366519     -0.482391
N       2.114502     -0.230017     -0.363373
N       1.474812      0.999804     -0.081744
C       0.274820      0.809319      0.270172
H      -2.372311      0.645122     -0.714137
H      -2.104011     -0.984532     -0.094835
H      -2.958109      0.178935      0.915001
H       2.307862     -2.107489     -0.693586
H       3.105119     -0.049192     -0.474244
H      -0.386359      1.709946      0.754193
