16
smiles: [C:1](=[C:2]([H:9])[H:10])([H:7])[H:8].[C:3](=[C:4]([C:5](=[C:6]([H:15])[H:16])[H:14])[H:13])([H:11])[H:12]
C       -0.68182200      -2.50333500       0.12985700
C       -1.57021900      -1.61497400      -0.28130000
C       -0.32570300       1.58181700       1.23052600
C        0.20392300       2.05556400       0.10928800
C        0.95733200       1.25787100      -0.86797500
C        1.79619800       0.27535600      -0.56308900
H        0.38282100      -2.34446600       0.00088800
H       -0.98246600      -3.42693700       0.61123900
H       -2.63485700      -1.77399500      -0.15247200
H       -1.26964200      -0.69143500      -0.76283800
H       -0.25814300       0.53053300       1.48823400
H       -0.86001400       2.22653200       1.91706800
H        0.06443300       3.10545300      -0.13547600
H        0.81338100       1.52186900      -1.91260100
H        2.01030000       0.01304700       0.46725400
H        2.30849700      -0.28677400      -1.33389800
