16
Extracted from Q-Chem output
C      -0.166243     -1.573732     -0.259457
C      -1.260222     -0.945432      0.293108
C      -0.681556      1.118587      0.905612
C      -0.086710      1.594290     -0.236560
C       1.023277      0.958062     -0.803453
C       1.569397     -0.170157     -0.242833
H      -0.097517     -1.698528     -1.331054
H       0.392471     -2.292873      0.326468
H      -1.556319     -1.177715      1.308532
H      -2.050479     -0.576088     -0.345410
H      -0.096100      0.626053      1.669312
H      -1.607380      1.558554      1.257656
H      -0.610898      2.336883     -0.829294
H       1.312949      1.233928     -1.812276
H       1.555346     -0.316304      0.828367
H       2.352005     -0.708978     -0.764195
