12
Extracted from Q-Chem output
O       1.278087      1.898499     -0.307292
C       0.548016      0.987807     -0.140178
C       0.713348     -0.440414      0.649183
C       1.930852     -0.931794      0.053705
C      -0.815833      0.599881     -0.607605
C      -0.681020     -0.732987      0.068144
N      -1.652455      0.213039      0.521937
H       1.675476     -1.294870     -0.964140
H      -1.280918      0.907576     -1.533677
H       0.747922     -0.317382      1.736587
H      -1.009793     -1.688742     -0.315316
H      -1.405212      0.672049      1.392124
