12
Extracted from Q-Chem output
O       1.101061      2.128252     -0.532762
C       0.513430      1.135770     -0.240373
C       1.011599     -0.219827      0.186554
C       2.192510     -0.858870      0.093577
C      -0.942532      0.761697     -0.463289
C      -0.800848     -0.655888     -0.096575
N      -1.603544      0.198068      0.703439
H       2.104745     -1.951102      0.133945
H      -1.555703      1.177852     -1.251245
H       0.367361     -0.735445      0.965162
H      -1.127309     -1.583677     -0.543375
H      -1.212302      0.475833      1.598417
