11
Extracted from Q-Chem output
C      -1.559599      0.006299     -0.140398
C      -0.121645     -0.319419      0.036771
C       1.014027      0.635693     -0.028226
N       2.150071     -0.233268      0.217130
N       1.750456     -1.389052      0.378319
N       0.318219     -1.493860      0.272884
H      -2.162221     -0.894363     -0.047886
H      -1.731507      0.454430     -1.121306
H      -1.880765      0.732911      0.608829
H       0.977168      1.420206      0.732139
H       1.125465      1.124241     -0.999870
