10
Extracted from Q-Chem output
O       1.947206     -0.434476      0.203148
C       0.670867     -0.095229      0.110476
C       0.260015      1.233714      0.033349
N      -1.007428      1.542489     -0.171746
N      -1.942249      0.620648     -0.354585
C      -1.622245     -0.659309     -0.161889
N      -0.297701     -0.989812      0.123602
H       2.022076     -1.391447      0.294689
H       0.963787      2.050276      0.137344
H      -0.981696     -1.879531     -0.210908
