11
Extracted from Q-Chem output
C      -1.644271     -0.348710     -0.732638
C      -1.246803      0.918125     -0.454329
C      -0.447250      1.770175     -0.030430
C       0.803178      1.333425      0.491123
O       1.761277      1.821140      0.951561
C       0.891907     -0.455509      0.396596
C       1.762742     -1.235641      0.731242
H      -2.357029     -0.840735     -0.078534
H      -0.253951     -0.650050     -0.132805
H      -1.606068     -0.707266     -1.756387
H       2.543220     -1.898024      1.032323
