15
Extracted from Q-Chem output
C       2.250488      1.151130      0.488463
C       1.279801      0.093107      0.084335
N       0.296837     -0.233100      0.801197
C      -0.554859     -1.302869      0.325881
O      -1.906704     -1.003100      0.472335
C      -2.333112      0.063393     -0.339566
H       1.947150      1.601036      1.431870
H       3.250164      0.722176      0.596742
H       2.317546      1.922053     -0.283129
H      -0.332370     -1.553253     -0.729335
H       1.464814     -0.401361     -0.882740
H      -0.374044     -2.182214      0.947204
H      -3.411279      0.150538     -0.214640
H      -2.110777     -0.131208     -1.398026
H      -1.861295      1.006786     -0.046522
