15
Extracted from Q-Chem output
C      -1.531815     -1.278551      0.327810
C      -0.645189     -0.496180     -0.628458
C      -0.382063      0.978323     -0.186090
N       0.755372      0.784764      0.730847
C       2.213845      0.837954      0.345513
C       1.353743     -0.296236      0.118172
N       0.748329     -1.044493     -0.702047
H      -1.145633     -1.227514      1.347688
H      -1.570337     -2.326500      0.028621
H      -2.550142     -0.883504      0.324525
H      -1.068793     -0.537456     -1.633904
H      -0.097204      1.598431     -1.044400
H      -1.220196      1.445020      0.330729
H       2.522949      1.387645     -0.542182
H       2.860259      0.929990      1.208709
