10
smiles: [C:3](=[O:4])([H:8])[H:9].[O:1]([C:2]([H:5])([H:6])[H:7])[H:10]
O       -0.31634900       1.10157300       0.02311700
C       -1.59156200       0.72829500      -0.45353500
C        1.83778500      -1.11558700       0.65746600
O        1.70859000      -0.85979700      -0.50346800
H       -2.32425600       1.29704200       0.11787600
H       -1.79376700      -0.33848100      -0.30422600
H       -1.72424400       0.96727900      -1.51491400
H        1.24489300      -0.60328300       1.43937700
H        2.55787800      -1.87792000       1.01214300
H        0.34876600       0.61116400      -0.46051300
