11
Extracted from Q-Chem output
O      -1.648502      1.917978      0.091714
C      -0.630278      1.229589      0.125563
C      -0.983577     -0.325878     -0.212957
C       0.274838     -1.009066     -0.141092
C       1.487643     -1.102225      0.031784
N       0.629945      1.419069      0.357697
H      -1.425140     -0.372106     -1.206748
H      -1.693851     -0.686742      0.528772
H       0.661088     -2.173207     -0.293016
H       2.533050     -1.290222      0.163537
H       0.794399      2.398202      0.562415
