8
Extracted from Q-Chem output
N      -1.655456     -0.665050      0.833089
C      -0.805980     -0.194467      0.051917
O       0.260101     -1.005878     -0.314916
C       1.480339     -0.550641     -0.529363
O       1.532389      0.724470     -0.167711
H      -2.412922     -0.003112      0.971797
H      -0.811731      0.774070     -0.444235
H       2.431335      1.021455     -0.333984
