8
Extracted from Q-Chem output
N      -1.791928     -0.841522      0.517025
C      -0.792856     -0.170633      0.189730
O       0.353703     -0.875146     -0.149509
C       1.476324     -0.226436     -0.409473
O       1.524687      1.050637     -0.305847
H      -2.572224     -0.227778      0.730043
H      -0.694985      0.909404      0.120975
H       2.504701      0.426071     -0.641154
