12
Extracted from Q-Chem output
O       1.074528      1.309562      0.996898
C       1.848154      0.309158      0.429718
C       1.043898     -0.584897     -0.258111
O       1.180520     -1.605236     -0.917006
N      -0.288000      0.003780     -0.027526
C      -1.490855     -0.593179     -0.560510
C      -0.162069      1.081495      0.698090
H       2.905200      0.368150      0.596787
H      -2.148768     -0.924471      0.242196
H      -1.161426     -1.455764     -1.139738
H      -2.017888      0.105145     -1.209406
H      -0.938222      1.746613      1.042147
