12
Extracted from Q-Chem output
O       1.868502      1.384862      1.165693
C       2.074792      0.425907      0.484730
C       0.972789     -0.513595     -0.010868
O       1.253846     -1.535196     -0.586403
N      -0.296327     -0.132199      0.352512
C      -1.424351     -0.583260     -0.423075
C      -0.850149      1.151150      0.044553
H       3.081266      0.117761      0.148252
H      -2.217675     -1.028792      0.165645
H      -1.115877     -1.142156     -1.303033
H      -1.783749      0.424152     -0.926274
H      -1.636144      1.305308      0.805483
