10
Extracted from Q-Chem output
N       0.247985      0.354175     -0.289317
C      -0.403513     -0.715113      0.313892
O       0.104890     -1.571908      0.967593
C       1.611676      0.645577     -0.256619
O       2.447717      0.014602      0.310172
C      -1.925033     -0.682013      0.039149
O      -2.656015     -1.519618      0.459552
H      -0.320456      0.997876     -0.816214
H       1.828912      1.560390     -0.837647
H      -2.299235      0.168716     -0.572372
