11
smiles: [C-:5]#[O+:6].[O:1]([C@@:2]1([H:8])[C:3]([H:9])([H:10])[N:4]1[H:11])[H:7]
O        0.46996800       1.62822000       0.00340700
C       -0.54859000       0.83010700       0.49268200
C       -1.26452100      -0.15538200      -0.34009900
N       -0.25524800      -0.56657700       0.64958000
C        2.48803800      -0.73939500      -0.91125300
O        2.92317300      -1.77324600      -0.84894200
H        1.17838600       1.03922100      -0.27107400
H       -1.10035800       1.34560000       1.27187900
H       -2.31096300      -0.35155600      -0.13310700
H       -0.96302500      -0.29437100      -1.37155000
H       -0.66147800      -0.96803400       1.48359000
