9
Extracted from Q-Chem output
O      -2.192783     -0.185259     -0.250095
C      -0.902026     -0.070369     -0.103193
N      -0.033498     -1.004483      0.249562
N       2.162091      0.059840      0.276619
N       0.945885      0.113259      0.100670
C       0.009658      1.022484     -0.253323
H      -2.449211     -1.096026     -0.056667
H       2.375217     -0.902003      0.545946
H       0.094131      2.060640     -0.508239
