14
Extracted from Q-Chem output
O       2.532542      0.777354     -0.644795
C       1.693001      1.674446     -0.541233
C       0.344068      1.462428     -0.206493
C       0.463231     -1.003507      0.015775
C      -0.805965     -1.721705      0.367998
C      -1.415115     -0.298186      0.361969
N      -0.071977      0.193203      0.016264
H       1.976211      2.729594     -0.716877
H      -0.397727      2.239573     -0.111935
H       1.493404     -1.239568     -0.193039
H      -0.820442     -2.225497      1.335737
H      -1.203055     -2.395346     -0.393041
H      -1.760125      0.086352      1.320688
H      -2.142412     -0.086567     -0.420508
