9
Extracted from Q-Chem output
N       1.484134     -0.322342     -1.368338
C       0.662749      0.201563     -0.655862
C      -0.157239      0.825180      0.222811
C      -1.323814     -0.173794      0.632423
N      -0.287457      0.139215      1.525535
H      -0.341159      1.886267      0.142236
H       1.178019     -0.840659     -2.187686
H      -1.223785     -1.184096      0.192623
H       0.439214     -0.565326      1.676581
