12
Extracted from Q-Chem output
O       0.209653      0.858716      1.748687
C       0.128442     -0.048617      0.666749
C       1.487358     -0.355338      0.212798
C       2.579999     -0.619762     -0.195747
C      -0.695801      0.532138     -0.461721
C      -1.679969     -0.236434     -1.184130
N      -2.208874      0.464773     -0.301201
H       3.558079     -0.852127     -0.545730
H      -0.300384      1.454298     -0.879810
H      -0.341820     -0.987482      0.991662
H      -1.963905     -0.941882     -1.952299
H      -0.689793      1.102089      1.985130
