12
Extracted from Q-Chem output
O      -0.033631      0.725709      1.606506
C       0.285000      0.244564      0.434389
C       1.628090     -0.191908      0.229851
C       2.737309     -0.570900     -0.013391
C      -0.674085      0.696529     -0.662221
C      -1.565075     -0.419173     -0.503181
N      -1.971663      0.743385      0.016901
H       3.727836     -0.905608     -0.216948
H      -0.415092      1.303815     -1.516432
H      -0.656258     -0.991786      0.329086
H      -2.004504     -1.206048     -1.101271
H      -1.016487      0.957264      1.449366
