16
Extracted from Q-Chem output
C      -1.174415      1.220293      0.076314
C      -1.046598     -0.267860     -0.161393
C       0.274058     -1.119718      1.113303
C       0.553553     -0.832072     -0.205164
C       1.637968      0.279566     -0.655605
O       2.730998     -0.393178     -0.767601
H      -0.511906      1.790100     -0.570994
H      -0.966897      1.495802      1.110187
H      -2.202519      1.516309     -0.141753
H      -1.250986     -0.547395     -1.196920
H      -1.782015     -0.829427      0.422848
H       0.073633     -2.125738      1.471725
H       0.252676     -0.322167      1.848654
H       0.614684     -1.682080     -0.877296
H       1.207656      0.738038     -1.584666
H       1.581121      1.062406      0.142557
