16
Extracted from Q-Chem output
C       2.741241      0.170599     -0.190819
C       1.421264      0.539829     -0.856709
C       0.244207     -0.089977     -0.174156
C      -2.149966     -1.049686      0.810965
C      -2.037704      0.362691      0.297083
O      -0.749315      0.734047     -0.255173
H       2.833066     -0.912077     -0.095407
H       2.804533      0.597374      0.811892
H       3.590286      0.542844     -0.766273
H       1.390894      0.100887     -1.864661
H       1.306714      1.624198     -0.977854
H      -1.451268     -1.240614      1.622965
H      -3.170678     -1.191739      1.174186
H      -1.949207     -1.778037      0.026273
H      -2.227048      1.092829      1.085996
H      -2.747095      0.551805     -0.510092
