16
Extracted from Q-Chem output
C       2.011911     -0.225775      0.172034
C       0.949067      0.514984     -0.625535
C      -0.306245     -0.293456     -0.894945
C      -1.149521     -0.847491      0.667204
C      -1.680754      0.666652     -0.219948
O      -1.279494      0.559647     -1.508944
H       2.116196     -1.250775     -0.190297
H       1.771068     -0.264512      1.236908
H       2.981621      0.265150      0.079768
H       1.313671      0.678465     -1.646753
H       0.774794      1.518870     -0.214955
H      -0.183954     -1.223421      0.998355
H      -1.582862     -0.399771      1.577832
H      -1.768561     -1.679886      0.349932
H      -1.269089      1.501547      0.343871
H      -2.744177      0.493437     -0.079864
