11
smiles: [C:2](=[C:3]1[C:4]([H:10])([H:11])[O:5]1)([H:7])[H:8].[O:1]([H:6])[H:9]
O        0.07393200       0.48267700      -2.40213500
C       -1.02927300       0.56725000       1.30387600
C       -0.12952400      -0.21162700       0.74961600
C        1.18021100      -0.67126100       0.40435800
O       -0.06275200      -1.31689600      -0.01449400
H       -0.22128900      -0.33844700      -2.00672000
H       -0.71469700       1.42033600       1.88604500
H       -2.08448700       0.36504900       1.18308400
H       -0.39924500       1.17375200      -1.93711000
H        1.76375000      -1.24458300       1.11688900
H        1.72957400      -0.19473900      -0.40073400
