17
smiles: [H:13][H:16].[O:1]([C:2]([C:3]([C:4]1=[C:7]([H:17])[O:6][C:5]1([H:14])[H:15])([H:11])[H:12])([H:9])[H:10])[H:8]
O        1.87962500      -0.66487200       1.45644400
C        1.82126200      -0.34616200       0.07694200
C        0.53185400      -0.90586600      -0.49037400
C       -0.68150100      -0.33241900       0.14601900
C       -2.12335900      -0.16352400      -0.26228200
O       -2.37068900       0.45534700       1.03506800
C       -1.02930800       0.23943600       1.29720000
H        2.67847000      -0.28879700       1.82737600
H        2.67509500      -0.78220000      -0.45650100
H        1.84175100       0.74117000      -0.07042500
H        0.54378100      -1.99633300      -0.38341000
H        0.51528600      -0.70087300      -1.56559900
H       -0.33124600       2.28174100      -0.99349100
H       -2.72096100      -1.07003300      -0.37206300
H       -2.33359600       0.54129900      -1.06891500
H       -0.28910400       2.69124300      -1.61388600
H       -0.58648700       0.52111200       2.24151900
