17
Extracted from Q-Chem output
O       1.833196      0.138637      1.221310
C       1.884709     -0.507757     -0.045144
C       0.499536     -1.040931     -0.348724
C      -0.532357      0.042652     -0.337484
C      -2.007084     -0.078853     -0.685954
O      -2.334978      0.645816      0.560319
C      -1.030828      0.727340      0.841271
H       2.674920      0.562421      1.390384
H       2.612457     -1.328453     -0.025695
H       2.178179      0.205426     -0.824439
H       0.277175     -1.849070      0.365855
H       0.530444     -1.501504     -1.340375
H      -0.374776      1.531112     -0.109788
H      -2.455494     -1.077225     -0.661594
H      -2.397019      0.481403     -1.542601
H      -0.674601      2.285372      0.552047
H      -0.670457      0.830286      1.859405
