13
smiles: [C:1]1([H:7])([H:8])[C-:2]=[O+:3][C:4]([H:11])=[N:5][C:6]1([H:12])[H:13].[H:9][H:10]
C        0.47433900      -0.48045000       0.77362500
C       -1.01935000      -0.61986900       0.68539000
O       -1.59103200       0.50991700       0.31840500
C       -0.86103000       1.68468600       0.04331300
N        0.34787700       1.74760600      -0.24315100
C        1.07029000       0.48178700      -0.23712800
H        0.64055100      -0.11495600       1.80056100
H        0.92496000      -1.47127700       0.73214600
H       -0.67418900      -2.82070900      -1.82116500
H       -0.99499200      -2.55761600      -1.20290100
H       -1.51804500       2.54610700       0.08467500
H        2.11993900       0.68760700      -0.02947500
H        1.02581500       0.06323900      -1.24856700
