13
Extracted from Q-Chem output
C       0.559033     -0.724014      0.516904
C      -0.797396     -0.984539     -0.104328
O      -1.622473      0.178761     -0.028492
C      -0.991974      1.361855     -0.182981
N       0.239368      1.601052     -0.278271
C       1.172905      0.490936     -0.164928
H       0.434324     -0.529762      1.585631
H       1.194396     -1.605817      0.412972
H      -0.693364     -1.261862     -1.158841
H      -1.347426     -1.773844      0.406748
H      -1.718029      2.170151     -0.217217
H       2.048023      0.845877      0.382475
H       1.522612      0.231206     -1.169671
