8
Extracted from Q-Chem output
C       1.942647      0.404753     -0.084114
C       0.823230     -0.009638     -0.128586
C      -0.538101     -0.540862     -0.175199
C      -2.302303      1.246590     -0.791685
N      -1.500871      0.449662     -0.516023
H       2.937306      0.783106     -0.046704
H      -0.805611     -0.960167      0.796789
H      -0.597707     -1.346429     -0.909720
