19
Extracted from Q-Chem output
C       2.112025     -0.157880      0.557560
C       0.976587     -0.849979     -0.197177
C      -0.173292      0.071876     -0.516353
C       0.018391      0.963497     -1.718690
C      -1.297693      0.114557      0.202773
C      -1.623935     -0.665045      1.433808
O      -2.352559      0.932007     -0.108591
H       2.953780     -0.835073      0.716998
H       1.766426      0.192963      1.532141
H       2.483253      0.711286      0.009558
H       0.636577     -1.715117      0.373214
H       1.366087     -1.254351     -1.137909
H       1.080528      1.120169     -1.913899
H      -0.409520      0.526949     -2.627667
H      -0.413858      1.960950     -1.590869
H      -2.491204     -1.304678      1.255363
H      -1.888650      0.024656      2.237912
H      -0.794244     -1.281608      1.767747
H      -2.167222      1.399976     -0.925394
