15
Extracted from Q-Chem output
C      -1.354206      1.117945     -0.657312
C      -0.164655      0.576654      0.043392
C       1.198319      0.530533     -0.469691
C       1.314396     -1.106910     -0.321541
N       2.090212     -1.956719     -0.637111
C      -0.231184     -0.175362      1.304249
N      -0.035563     -1.230159      0.304545
H      -1.394818      2.198533     -0.487135
H      -1.279295      0.959465     -1.733198
H      -2.283738      0.684659     -0.287888
H       1.936331      0.984601      0.190279
H       1.331889      0.845338     -1.500674
H      -1.210549     -0.234962      1.771936
H       0.576063     -0.061876      2.027835
H      -0.528803     -2.118400      0.388322
