10
Extracted from Q-Chem output
N      -1.579851      0.121615      0.048502
C      -0.206611     -0.028168     -0.095110
C       0.849917      0.892854      0.015419
N       1.966648      0.218747      0.221036
N       1.701157     -1.080129      0.234151
N       0.416363     -1.304791      0.070013
H      -2.075333     -0.756684      0.037575
H      -1.997924      0.800049     -0.567117
H       0.825607      1.968933     -0.048560
H       0.138426     -0.734041     -1.090903
