11
Extracted from Q-Chem output
C      -1.362961     -0.681564      0.804331
C      -0.371128      0.434765      0.657926
C       2.248720     -0.643227     -0.867733
O       1.472965      0.325114     -1.307593
C       0.414651      0.638676     -0.509827
N      -0.529767      1.431315     -0.549028
H      -2.249329     -0.337275      1.340003
H      -1.671889     -1.061619     -0.169852
H      -0.921267     -1.505078      1.369038
H      -0.051213      0.912974      1.580404
H       3.008678     -0.702292     -1.675279
