11
Extracted from Q-Chem output
C      -1.193539     -0.748105      0.721238
C      -0.130077      0.278572      0.605345
C       1.833252     -0.538887     -0.646063
O       1.398928      0.411916     -1.358976
C       0.174932      0.960815     -0.595653
N      -0.606223      1.858983     -0.721822
H      -2.071259     -0.341580      1.229134
H      -1.488487     -1.141959     -0.249206
H      -0.812248     -1.564196      1.339507
H       0.246845      0.722186      1.521424
H       2.720323     -0.948881     -1.164375
