15
Extracted from Q-Chem output
O       0.212237      2.236209      1.769841
C       0.780983      1.654756      0.944622
C      -1.755641      0.286931     -0.739582
C      -1.359757     -0.639868      0.118809
C       0.046612     -1.115471      0.351065
C       1.147460     -0.405215     -0.427573
C       1.435872      1.011514      0.012060
H      -1.059829      0.835093     -1.364799
H      -2.803364      0.541902     -0.838409
H      -2.111393     -1.139021      0.725573
H       0.081939     -2.182280      0.105908
H       0.263176     -1.064117      1.424744
H       0.898914     -0.410607     -1.494040
H       2.068281     -0.986303     -0.330065
H       2.249402      1.565427     -0.439617
