10
Extracted from Q-Chem output
O       2.121588      0.147470     -0.468242
C       0.806322      0.060914     -0.337605
N       0.185234     -1.069277     -0.463025
N      -1.177448     -0.663108     -0.242009
C      -1.334860      0.826133      0.030296
C      -0.037231      1.199470     -0.048672
H       2.470421     -0.731178     -0.657805
H      -1.559718     -1.179546      0.548411
H      -1.738897     -0.906557     -1.056296
H       0.344301      2.200850      0.080045
