12
Extracted from Q-Chem output
N       2.789906      1.203800      0.344520
C       1.929467      0.446131      0.331479
C       0.832670     -0.521125      0.280388
O      -0.117353     -0.346061      1.332867
C      -1.224584     -0.247957      0.442553
C      -0.815999      0.984446     -1.092681
C      -0.244994     -0.289213     -0.813115
H       1.246049     -1.532859      0.284036
H      -1.892494     -1.108548      0.450053
H      -1.822024      0.662530      0.595280
H      -0.316664      1.754134     -0.479337
H      -0.412442     -1.104503     -1.510042
