13
Extracted from Q-Chem output
C      -2.173924     -0.971190     -0.653159
C       0.790136      0.581746      0.528876
C       2.086228      0.445033     -0.195702
O       0.945935      0.926581      1.856802
C      -0.379434      0.373148     -0.024327
N      -1.473796      0.303764     -0.572243
H      -2.354545     -1.199093     -1.704407
H      -3.146445     -0.864888     -0.170604
H      -1.622808     -1.794458     -0.189046
H       2.632000      1.390809     -0.166123
H       1.921195      0.166715     -1.235417
H       2.707223     -0.318188      0.278966
H       0.093121      1.149238      2.235663
