15
Extracted from Q-Chem output
C      -1.068773      0.878970     -1.424983
C      -0.638552      0.493537     -0.037325
C      -1.657589     -0.199933      0.822957
C       0.761280      0.371470      0.270119
O       0.142918      1.521086      0.661116
C       1.918760     -0.190891      0.300037
C       3.074485     -0.791777      0.313357
H      -1.959592      1.509421     -1.382475
H      -1.313285     -0.014942     -2.001872
H      -0.274811      1.418860     -1.938267
H       3.791293     -0.657025     -0.490358
H      -2.560753      0.409107      0.901863
H      -1.932720     -1.158275      0.378646
H      -1.261070     -0.378632      1.821088
H       3.363958     -1.442844      1.132002
