16
smiles: [C:1]([C-:2]([O+:3]=[C:4]([C:5]([O:6][H:16])([H:14])[H:15])[H:13])[H:11])([H:7])([H:8])[H:9].[H:10][H:12]
C       -2.45019600      -0.68447200       0.14369900
C       -1.16540800      -0.51930700      -0.57728600
O       -0.14179800      -0.11623700       0.08586800
C        1.07153100       0.18196000      -0.31724200
C        2.07133900       0.44235600       0.73341300
O        2.87686800      -0.68580400       1.10086500
H       -2.89017400      -1.66862100      -0.04128700
H       -3.19397000       0.06218200      -0.15707100
H       -2.28870300      -0.58109700       1.21715800
H       -0.85894600       1.86525200      -1.29005500
H       -1.04936800      -0.65865200      -1.64732200
H       -0.13624700       1.98607100      -1.15733800
H        1.30395400       0.00848000      -1.36160900
H        1.56173700       0.84671300       1.61682900
H        2.79125600       1.18880200       0.39402600
H        2.28376600      -1.41265200       1.30124400
