16
Extracted from Q-Chem output
C      -2.463332     -0.644129      0.111512
C      -1.207329     -0.263465     -0.586398
O      -0.148556     -0.110998      0.149248
C       1.020529      0.309009     -0.307089
C       2.084726      0.445824      0.716092
O       2.843363     -0.741332      0.947233
H      -2.557933     -1.729408      0.235386
H      -3.326550     -0.305170     -0.462319
H      -2.505265     -0.183627      1.098790
H      -0.817312      1.605316     -1.136734
H      -1.054063     -0.482115     -1.638556
H      -0.038028      1.755509     -1.016455
H       1.267903      0.032356     -1.327781
H       1.638738      0.809584      1.649164
H       2.812140      1.186507      0.383126
H       2.236608     -1.428883      1.228672
