15
Extracted from Q-Chem output
C       0.656614      1.002354     -0.064033
C       1.368864     -0.265368      0.081701
C       0.375286     -1.362588      0.144315
O      -0.772490     -1.273406      0.920156
C      -1.484219     -0.110154      0.565172
C      -0.735963      0.589278     -0.432881
C       0.337669     -0.471810     -1.056384
H      -0.049300      1.531383      1.683278
H       1.158761      1.788867     -0.623627
H       2.435387     -0.395092     -0.006992
H       0.774230     -2.365429      0.060280
H      -0.770900      1.131615      1.719315
H      -2.534900     -0.325552      0.386046
H      -1.264672      1.264571     -1.094581
H       0.553416     -0.613783     -2.102467
