11
Extracted from Q-Chem output
O       2.367978     -0.963594      0.065452
C       1.150716     -0.610223      0.040491
O       0.170426     -1.480819      0.088843
C      -1.097679     -0.961660      0.052938
C      -1.316431      0.355101     -0.026446
C      -0.208798      1.281210     -0.077306
C       1.059246      0.804817     -0.043904
H      -1.842694     -1.740454      0.098613
H      -2.341063      0.701668     -0.050537
H      -0.428334      2.342133     -0.141435
H       2.490893      0.247644     -0.006204
