12
Extracted from Q-Chem output
C       1.821285      0.862817     -0.996069
C       0.569841     -0.396661      0.509316
O       0.567252      0.557203     -0.369926
C      -0.840571     -0.530119      1.036742
C      -1.898088     -0.690189     -0.035155
O      -2.722214     -1.559850     -0.025115
H       1.694154      0.735181     -2.069952
H       2.582845      0.189851     -0.606016
H       2.057921      1.901843     -0.771738
H      -0.912636     -1.353671      1.743447
H      -1.060871      0.408188      1.565331
H      -1.862758      0.053284     -0.854082
