17
smiles: [C:1](/[C:2](=[C:3](\[O:4][C:5]1([H:14])[C:6]([H:15])=[C:7]1[H:17])[H:13])[H:11])([H:8])([H:9])[H:10].[H:12][H:16]
C        2.41047400       0.67781800       0.65500300
C        1.77358100      -0.66632600       0.49728000
C        0.46825600      -0.89968200       0.52251200
O       -0.45372800       0.08238200       0.69640300
C       -1.79938600      -0.34836400       0.68338000
C       -2.81976400       0.64414400       0.33131100
C       -2.58405900      -0.25726600      -0.56566100
H        3.08016700       0.69554400       1.51896900
H        1.65925800       1.45432500       0.79320200
H        3.01107600       0.93542800      -0.22133400
H        2.41530200      -1.52754500       0.35273100
H        0.31242300       1.16580200      -2.43013900
H        0.06512400      -1.90230600       0.40261700
H       -1.97535500      -1.12483100       1.42778100
H       -3.34138400       1.53235200       0.64222200
H        0.16882700       1.00723900      -1.71689900
H       -2.76787400      -0.65953500      -1.54650400
