17
Extracted from Q-Chem output
C       2.119253      0.660068      0.425394
C       1.262438     -0.428447     -0.185755
C       0.216994     -1.012885      0.482620
O      -0.372891     -0.299450      1.512074
C      -1.650101     -0.009080      0.966521
C      -1.716299      0.664140     -0.363638
C      -1.860790     -0.676602     -0.319501
H       2.912091      0.212577      1.029278
H       1.523000      1.300511      1.073058
H       2.588321      1.273086     -0.344680
H       1.747042     -1.053564     -0.931598
H       0.405308      0.611961     -0.905870
H      -0.020264     -2.066812      0.412126
H      -2.387985      0.160239      1.745517
H      -2.224092      1.532903     -0.750884
H      -0.383266      1.030642     -0.911256
H      -2.362297     -1.497272     -0.803559
