17
Extracted from Q-Chem output
C      -1.313907     -0.241329      0.315567
C      -0.614589     -1.490047     -0.213654
O       0.698303     -1.268540     -0.675079
C       1.557879     -0.619126      0.229914
C       1.450931      0.882761      0.197227
C       0.379159      1.582089     -0.151644
C      -0.979664      1.020570     -0.479269
H      -1.049948     -0.072477      1.363637
H      -2.391236     -0.428687      0.295835
H      -0.618260     -2.273953      0.557650
H      -1.149619     -1.878542     -1.082827
H       1.409034     -1.000640      1.252151
H       2.571906     -0.902377     -0.062318
H       2.361268      1.417517      0.453189
H       0.470290      2.663866     -0.183853
H      -1.054727      0.821166     -1.554120
H      -1.726822      1.787749     -0.262407
