13
smiles: [C:1](=[N:2][C@:3]12[C:4]([H:10])([H:11])[C@@:5]1([H:13])[O:6]2)([H:7])[H:8].[H:9][H:12]
C        2.17372600       0.00469300       0.53126000
N        1.03843300       0.29980400       0.05652700
C       -0.02757900      -0.51632400       0.34355900
C       -1.41806500      -0.67430400      -0.18923500
C       -1.11039600      -0.49482000       1.25928400
O       -0.12416300      -1.53815000       1.35862900
H        3.00848300       0.66786300       0.32226300
H        2.34800600      -0.88170700       1.14367000
H       -0.87479000       3.08493000      -0.56267600
H       -1.73913300      -1.64976900      -0.54321300
H       -1.81713700       0.19106400      -0.70917600
H       -0.35412000       2.56104700      -0.46889800
H       -1.39097000       0.15242500       2.07165700
