13
Extracted from Q-Chem output
C       2.277956      0.243124      0.712422
N       1.238531     -0.632868      0.207340
C       0.053767     -0.260471      0.262801
C      -1.275081     -0.851263     -0.133002
C      -1.832291      0.465611      0.418458
O      -0.492787      0.911935      0.748204
H       1.907293      1.195916      1.100039
H       2.992849      0.442284     -0.087787
H       2.818367     -0.273400      1.507829
H      -1.547253     -1.752713      0.411994
H      -1.396221     -1.012535     -1.202133
H      -2.297784      1.133685     -0.306138
H      -2.447345      0.390694      1.315312
