13
Extracted from Q-Chem output
C       1.826621      0.586566      0.301539
N       1.086500     -0.252586     -0.404206
C       0.027198     -0.699365      0.203732
C      -1.372236     -0.987353     -0.212007
C      -1.192560      0.113840      0.810768
O      -0.273243     -0.617540      1.617533
H       2.608515      1.121617     -0.228914
H       1.954766      0.477986      1.376902
H       0.631880      1.647474      0.516898
H      -1.818471     -1.915451      0.141437
H      -1.640348     -0.689173     -1.220958
H      -0.218593      1.414193      0.518567
H      -1.876058      0.833639      1.234796
