14
Extracted from Q-Chem output
C       1.732331     -0.488685      0.320598
C       1.105923      0.238019     -0.795340
C      -0.349649      0.136891     -0.872143
C      -1.209842     -0.733856      0.065642
O      -1.320882      0.320073      1.033609
C      -0.739042      1.268275      0.145801
H       1.120104     -0.720402      1.200558
H       2.697039     -0.075956      0.613487
H       1.957709     -1.449431     -0.177640
H       0.082421      1.826732      0.604778
H      -0.743231      0.288009     -1.875053
H      -0.750033     -1.630367      0.487334
H      -2.185801     -0.991825     -0.355824
H      -1.465855      1.971217     -0.268311
