13
Extracted from Q-Chem output
C      -1.703650     -0.955797     -0.183743
C      -0.832218      0.214256     -0.596262
O       0.100491      0.523055      0.438570
C       2.033262      1.127631      0.013166
C       1.498063     -0.139524      0.323237
N       1.876442     -1.268088      0.431897
H      -2.223174     -0.734164      0.749154
H      -2.448003     -1.156946     -0.957627
H      -1.092052     -1.845796     -0.037662
H      -1.433712      1.109846     -0.766965
H      -0.290969     -0.023651     -1.520784
H       2.470084      1.763667      0.776863
H       2.116479      1.441069     -1.022962
