13
Extracted from Q-Chem output
N       2.006497      0.687668      0.104554
C       0.660454      0.408400     -0.095400
C       0.020639     -0.805432      0.156477
O       0.714852     -1.918988      0.516419
C      -1.348098     -0.607954      0.035425
C      -1.520891      0.729865     -0.315359
N      -0.220227      1.357100     -0.448079
H       2.358727      1.402222     -0.512024
H       2.584687     -0.137380      0.096471
H       0.117468     -2.665228      0.580952
H      -2.130720     -1.338428      0.180790
H      -2.366745      1.207986     -0.784309
H      -0.992284      1.615524      0.491153
