18
smiles: [C:1]([C:2]1([C:3]([H:10])([H:11])[H:12])[C:4]([H:13])=[C:5]([H:15])[C:6]1([H:17])[H:18])([H:7])([H:8])[H:9].[H:14][H:16]
C       -1.78576100      -1.02006000      -0.09843700
C       -0.53251300      -0.16345600       0.01437100
C       -0.82344500       1.29348900      -0.31530200
C        0.27689200      -0.38047700       1.28479100
C        1.33397400      -0.88037200       0.65250400
C        0.72119300      -0.75479000      -0.72207200
H       -2.20843200      -0.96365100      -1.10539200
H       -1.56719100      -2.06726500       0.12130200
H       -2.55321800      -0.68298700       0.60329500
H       -1.23170200       1.39065200      -1.32488400
H        0.08391700       1.89797200      -0.25324100
H       -1.55498500       1.71141300       0.38139200
H        0.04946800      -0.18570100       2.32721000
H        3.15500700       2.16338400      -0.00038100
H        2.29536200      -1.24959200       0.98819600
H        2.67090000       1.63643300       0.20533300
H        0.53889100      -1.69443200      -1.24972500
H        1.21936000      -0.05996900      -1.40299200
