18
Extracted from Q-Chem output
C      -1.280468     -1.009910      0.530708
C      -0.421759      0.081299     -0.093534
C      -1.274564      1.157064     -0.741026
C       0.770726      0.551404      0.762726
C       1.645829     -0.386195      0.164831
C       0.722787     -0.569378     -1.029855
H      -1.901793     -1.494881     -0.226563
H      -0.667996     -1.775176      1.010337
H      -1.946261     -0.589164      1.287555
H      -1.904843      0.737374     -1.529758
H      -0.658118      1.940102     -1.187658
H      -1.934783      1.622818     -0.004649
H       0.976172      1.614606      0.762838
H       1.827202      0.522552      1.831532
H       2.009871     -1.265177      0.676034
H       2.620357      0.325591      1.107373
H       0.539070     -1.577537     -1.409782
H       0.921747      0.108495     -1.860361
