15
Extracted from Q-Chem output
C       2.127179      0.317096     -0.374259
C       0.769388     -0.096220     -0.963923
C      -0.186157     -0.638800      0.007446
C      -1.199471      0.207391      0.698561
O      -0.686556      1.393000      0.706364
N      -2.587315      0.055904      0.337164
H       2.799278      0.633921     -1.172162
H       2.598851     -0.509733      0.160947
H       1.972904      1.143911      0.317293
H       0.312311      0.766949     -1.451112
H       0.941248     -0.908122     -1.684776
H       0.058113     -1.607552      0.447820
H      -0.965398     -0.305789      1.705252
H      -3.170777      0.502749      1.031719
H      -2.868681     -0.910223      0.226556
