17
smiles: [C:1](=[C:2]([C:3]([C:4]([O:5][H:15])([H:13])[H:14])([H:11])[H:12])[H:8])([H:9])[H:10].[C:6](=[O:7])([H:16])[H:17]
C       -0.49981700      -2.55508900       0.31775200
C       -0.30246400      -1.35139600      -0.19858100
C        0.98936700      -0.86866500      -0.78403400
C        1.67102100       0.19768000       0.07236400
O        0.88707500       1.36319500       0.23810500
C       -1.90189100       2.69043000       0.15642900
O       -1.75556200       1.87676600       1.02037600
H       -1.12854100      -0.64329900      -0.20395400
H       -1.45590100      -2.84430200       0.73708200
H        0.28816200      -3.30148100       0.33237600
H        0.80722600      -0.44477700      -1.77623700
H        1.67967500      -1.70856900      -0.90541400
H        2.59181000       0.52332200      -0.41490300
H        1.94369700      -0.23001100       1.04521400
H        0.18303000       1.17382100       0.86023700
H       -2.82728300       3.29174700       0.06937400
H       -1.12000300       2.88591600      -0.60230700
