15
Extracted from Q-Chem output
C      -2.437149      0.194608      0.402864
C      -0.954650      0.248859      0.200413
N       1.130131     -0.806898     -0.480542
C      -0.245286     -0.780121     -0.255330
C       1.993429      0.157206      0.132640
O       1.977591      1.400343     -0.528515
H      -2.952514      0.942730     -0.205996
H      -2.838561     -0.785566      0.137002
H      -2.706023      0.393139      1.444088
H      -0.454848      1.188232      0.414656
H       1.522981     -1.725332     -0.575183
H      -0.743570     -1.708246     -0.521194
H       3.003778     -0.267805      0.146097
H       1.688005      0.377990      1.161956
H       2.030001      1.223887     -1.471258
