15
Extracted from Q-Chem output
C      -1.772876      0.169740      0.671475
C      -0.967420     -0.008734     -0.545869
N       1.122085     -0.109231     -1.637783
C       0.335568     -0.636826     -0.637135
C       1.092118     -0.002860      0.731756
O       1.452154      1.293837      0.490251
H      -2.821716      0.313246      0.406884
H      -1.674539     -0.659701      1.373159
H      -1.454775      1.088528      1.190128
H      -1.224798      0.612877     -1.400892
H       1.500751     -0.826994     -2.245138
H       0.319018     -1.711341     -0.388084
H       1.941056     -0.684338      0.829193
H       0.455285     -0.063333      1.613281
H       1.707599      1.260712     -0.460452
