16
Extracted from Q-Chem output
C       1.748586     -0.932251      0.149781
C       0.631731      0.098985      0.108035
O       1.298504      1.418863      0.095594
C      -0.132391      0.136779     -1.179180
N      -1.406371      0.241674     -1.009941
C      -1.756905      0.244534      0.430071
C      -0.455370     -0.017937      1.094827
H       1.368890     -1.937954     -0.038213
H       2.205156     -0.911973      1.139213
H       2.525471     -0.696276     -0.580086
H       0.839381      1.873271      0.812754
H      -2.044433      0.478429     -1.755581
H       0.292406      0.129957     -2.178415
H      -2.522383     -0.517327      0.606194
H      -2.229949      1.225961      0.592027
H      -0.411010     -0.808556      1.831106
