15
Extracted from Q-Chem output
C      -1.623381      1.097364     -0.922068
C      -0.914403      0.335437      0.157314
O      -0.771595      0.772127      1.277186
C      -0.298593     -1.013750     -0.216440
O       1.046504     -0.854941     -0.609655
C       1.895156     -0.252160      0.354782
O       1.737978     -0.760298      1.633749
H      -2.511797      0.543076     -1.235983
H      -0.972242      1.174032     -1.796323
H      -1.909598      2.086502     -0.572474
H       1.739926      0.834750      0.347097
H       0.987669     -0.308427      2.039023
H      -0.808153     -1.456551     -1.072412
H      -0.386164     -1.685889      0.642169
H       2.904344     -0.484092      0.018146
