11
Extracted from Q-Chem output
O      -2.089832      0.700726     -0.169936
C      -0.835615      0.263502     -0.315644
N       0.296621      0.949238     -0.226867
C       1.457726      0.057039     -0.407766
O       2.598395      0.492062     -0.351926
C       0.844780     -1.176437     -0.610658
N      -0.550631     -0.992923     -0.546952
H      -2.157561      1.625879     -0.418877
H       0.395332      1.919393      0.015393
H       1.277172     -2.145968     -0.764804
H      -1.249366     -1.699735     -0.685387
