12
Extracted from Q-Chem output
C      -1.973695      0.158225     -0.502657
C      -0.614476      0.746293     -0.721388
C       0.586317      0.101050     -0.272718
O       0.286073      0.006065     -1.598816
C       1.475269     -0.286710      0.572908
C       2.359281     -0.658665      1.453923
H      -2.424337      0.594808      0.390638
H      -1.905568     -0.920764     -0.367645
H      -2.624668      0.371925     -1.352063
H       2.259035     -1.592269      1.997987
H      -0.569472      1.819532     -0.892754
H       3.231031     -0.049465      1.670222
