10
Extracted from Q-Chem output
C       1.425254     -0.008955     -0.247393
O       0.178077      0.659348     -0.376096
C      -0.950060      0.164835      0.686501
O      -0.740127      0.256700      1.843874
N      -1.752300     -0.210649     -0.262929
H       1.795381      0.156145      0.764757
H       2.120410      0.418930     -0.967900
H       1.313476     -1.082129     -0.426258
H      -0.702601      0.188163     -0.994764
H      -2.671638     -0.548446     -0.028341
