14
Extracted from Q-Chem output
C      -0.075915     -1.387884      0.720497
C      -0.702551      0.376119     -0.526686
C      -1.187820      1.749810     -0.403728
O      -2.289521      2.080371     -0.768161
C       0.560934      0.051822      0.159576
O       0.557107      0.857885      1.169117
N       1.766848     -0.125181     -0.572670
H       0.698036     -1.697238      1.417703
H      -1.013530     -1.269492      1.257078
H      -0.175603     -2.091025     -0.104649
H      -1.366132     -0.358250     -0.969798
H      -0.419543      2.462695     -0.056639
H       1.662591     -0.642067     -1.433228
H       2.500264     -0.517017      0.000418
