17
Extracted from Q-Chem output
C       2.220047      0.148357     -0.511055
C       0.843087     -0.412041     -0.242714
C       0.090103      0.345407      0.833720
O      -1.148735     -0.263769      1.088101
C      -0.702081     -1.252853     -1.893549
C      -2.273927      0.539957      0.808282
O       0.060422     -0.307194     -1.466092
H       2.714352     -0.408533     -1.306654
H       2.833966      0.081724      0.388401
H       2.158710      1.195500     -0.812002
H       0.877008     -1.474830      0.019105
H      -0.032965      1.388469      0.519245
H       0.689127      0.339602      1.751338
H      -0.561736     -2.127143     -1.202506
H      -2.291633      1.435733      1.440411
H      -2.301566      0.841955     -0.244057
H      -3.154757     -0.062061      1.025373
