10
Extracted from Q-Chem output
C      -1.320721      0.206377      0.116573
C      -0.359420      1.333262      0.025932
N       0.861232      0.967441     -0.081168
C       0.822229     -0.464249     -0.070636
N       1.823019     -1.224840     -0.156859
C      -0.588291     -0.904480      0.056695
H      -2.392471      0.301643      0.211673
H      -0.636222      2.382605      0.045183
H       2.668760     -0.658929     -0.234404
H      -0.898080     -1.937410      0.089041
