17
Extracted from Q-Chem output
C       1.950482      0.400330     -0.802818
C       0.657502      0.977211     -0.392333
C      -0.478770     -1.597452      0.981603
C      -1.167816     -0.880913     -0.172773
C      -0.759494      0.574817     -0.313117
C      -0.793262      1.604627      0.836040
O       0.549721      1.951135      0.456152
H       2.693229      1.190097     -0.923413
H       2.324293     -0.302562     -0.048395
H       1.846331     -0.139819     -1.743457
H       0.590560     -1.723694      0.796985
H      -0.901101     -2.592337      1.131260
H      -2.250576     -0.907750     -0.026892
H      -0.976220     -1.403413     -1.115816
H      -1.280982      1.057563     -1.150667
H      -0.596824     -1.026132      1.903268
H      -1.437050      2.484113      0.751292
