17
Extracted from Q-Chem output
C       1.870309      0.388386     -0.604893
C       0.562320      0.124883      0.078982
C       0.180465     -1.315213      0.475906
C      -1.235808     -1.094973     -0.117832
C      -0.856347      0.346754     -0.507960
C      -1.004250      1.364949      0.619754
O       0.297458      1.056112      1.147590
H       2.692763      0.218666      0.094354
H       2.001877     -0.279950     -1.457907
H       1.923678      1.420850     -0.953528
H       0.757165     -2.083187     -0.041873
H       0.234100     -1.493012      1.549546
H      -2.069476     -1.182394      0.580594
H      -1.442597     -1.732415     -0.977049
H      -1.051848      0.679920     -1.524948
H      -1.801442      1.172410      1.345060
H      -1.058367      2.408214      0.294204
