17
Extracted from Q-Chem output
C      -1.075179     -0.532044      0.331525
C      -0.946078      0.753926     -0.457341
C       0.136288      1.715551     -0.061336
C       0.380598      0.730193     -1.166113
C       1.081718     -0.565102     -0.808948
C       0.344015     -1.123438      0.413635
O       1.047673     -0.708669      1.579897
H      -1.505080     -0.394147      1.328236
H       0.562916     -1.012433      2.349399
H      -1.726909     -1.224409     -0.209194
H      -1.829572      1.149901     -0.941920
H      -0.004188      2.749265     -0.350460
H       0.645118      1.569666      0.882421
H       0.476516      1.105584     -2.177044
H       2.143044     -0.445279     -0.584308
H       0.993315     -1.267368     -1.641803
H       0.314623     -2.218603      0.388740
