14
Extracted from Q-Chem output
C       1.563866     -1.104212      0.930302
N       0.257717      2.948184     -1.347131
C      -0.280035      1.950721     -1.166262
O       1.094016     -0.289794     -0.121630
C      -0.248897     -0.459218     -0.369837
C      -1.248036      0.262429      0.471956
C      -0.981808      0.714073     -0.951736
H       2.625995     -0.896988      1.042942
H       1.048405     -0.875739      1.869821
H       1.426402     -2.167544      0.700887
H      -0.526609     -1.436252     -0.762075
H      -0.854354      0.902562      1.250081
H      -2.204651     -0.196868      0.679320
H      -1.735819      0.504285     -1.698898
