14
smiles: [C:1]1([H:7])([H:8])[C:2]([H:9])([H:10])[C@@:3]2([H:11])[O+:4]=[C-:5][C@@:6]12[H:14].[H:12][H:13]
C        1.38559900       0.46073100      -0.37094200
C        1.23609000      -1.07946100      -0.36081300
C       -0.24886500      -0.92440600      -0.03511200
O       -0.44447600      -0.71613700       1.39107500
C       -0.41770600       0.61123100       1.34446800
C       -0.15372800       0.60525400      -0.15560300
H        1.98610800       0.88908800       0.43210400
H        1.73072600       0.86694000      -1.31910900
H        1.81619100      -1.64419700       0.36788000
H        1.38014900      -1.51656600      -1.34879700
H       -0.99904500      -1.59114600      -0.45405200
H       -3.63520900       1.51234300       0.82570200
H       -3.00165100       1.52282500       1.21670200
H       -0.72418400       1.25634000      -0.80971200
