12
smiles: [C:4](=[O:5])([H:9])[H:10].[O:1]1[C:2](=[C:3]([H:7])[H:8])[C:6]1([H:11])[H:12]
O        0.81312400       0.80230600       1.23301100
C        0.25201300       1.04541600       0.03471700
C       -0.88707900       1.45886900      -0.47023500
C       -0.83795300      -1.97334600       0.21460000
O        0.16711600      -2.40171800      -0.27142400
C        1.60459800       0.57996700       0.02458900
H       -0.99993100       1.54285900      -1.54077500
H       -1.71565800       1.71698800       0.17442200
H       -0.83882700      -1.44393300       1.18677900
H       -1.82148700      -2.08207600      -0.28173000
H        2.42080300       1.28161700      -0.11138100
H        1.82122200      -0.46263700      -0.18314500
