15
Extracted from Q-Chem output
C      -2.440640     -0.135654     -0.003674
N      -1.166143     -0.024063     -0.656362
C       0.006904      0.001467      0.013181
N       0.217765     -0.025899      1.271787
C       1.213320      0.072460     -0.917377
O       1.036591      0.066153     -2.112086
C       2.566567      0.147105     -0.283956
H      -3.228822     -0.125706     -0.753539
H      -2.613763      0.701060      0.680676
H      -2.521930     -1.067191      0.566821
H      -1.093846     -0.026018     -1.659777
H      -0.645145     -0.078545      1.806911
H       2.725965     -0.725524      0.350285
H       3.325576      0.205892     -1.060394
H       2.617599      1.014464      0.374956
