17
Extracted from Q-Chem output
O       2.462790     -0.892162     -1.248649
C       1.602008     -0.763091      0.445265
C       0.445443     -0.157860     -0.072312
C      -0.941428     -0.780663     -0.103570
C      -1.792018      0.307209      0.557705
C      -1.054622      1.569386      0.131879
O       0.320147      1.232481      0.172265
H       3.148656     -0.228593     -1.392962
H       2.342777     -0.170515      0.968338
H       1.631060     -1.831139      0.609907
H       1.279776     -0.398922     -1.159102
H      -0.983125     -1.735479      0.420694
H      -1.279670     -0.950754     -1.128241
H      -1.760641      0.208120      1.645042
H      -2.834433      0.296193      0.239066
H      -1.214149      2.418676      0.797195
H      -1.342763      1.864007     -0.886652
