14
Extracted from Q-Chem output
C       1.524753     -0.446846     -0.117296
C       0.455356     -0.258480      0.954028
C      -0.892374      0.184072      0.397944
O      -0.853257      1.473198     -0.225282
C      -1.479695     -0.884715     -0.508703
O      -1.847558     -0.361674     -1.629462
H       2.457881     -0.792801      0.327927
H       1.211386     -1.187337     -0.855993
H       1.758545      0.479129     -0.651487
H       0.783678      0.467140      1.703535
H      -1.611675      0.255423      1.223841
H       0.057414      1.715558     -0.403694
H       0.290390     -1.204236      1.472781
H      -1.644327      0.607278     -1.626930
