17
smiles: [C:1]([C:2](=[C:3]([H:12])[H:13])[H:11])([H:8])([H:9])[H:10].[C:4](#[C:5][H:15])[H:14].[C:6](=[O:7])([H:16])[H:17]
C       -1.71316700       0.43300500       0.93191600
C       -1.57538700      -1.05578800       0.90569400
C       -1.32798100      -1.77842600      -0.17567100
C        2.03162800      -0.36841700       0.74986900
C        3.07761400       0.19308100       0.88324900
C        0.93057000       1.51713400      -1.64562800
O        0.02214600       0.92553500      -2.15035000
H       -2.69632500       0.72802500       1.30778200
H       -1.58431600       0.86307900      -0.06235400
H       -0.97175000       0.88105700       1.59859400
H       -1.68810100      -1.56451200       1.86052400
H       -1.20748400      -1.31623900      -1.15033400
H       -1.23798900      -2.85692400      -0.12850900
H        1.09977900      -0.87062300       0.63436100
H        4.00986000       0.69408500       1.00061000
H        0.81308900       2.07223600      -0.69498700
H        1.93879200       1.54168500      -2.10215600
