16
Extracted from Q-Chem output
C      -2.160587      0.077217      1.482286
C      -0.837829      0.060087      0.797066
N      -0.690412      0.573719     -0.411103
C       0.370913      0.708381     -1.208306
C       1.694245      0.246936     -0.751288
C       1.909383     -1.252991     -0.658288
O       1.111764     -2.091504     -0.968202
H      -2.131817      0.620845      2.431958
H      -2.918574      0.563300      0.861016
H      -2.522281     -0.932452      1.701492
H       0.014861     -0.431389      1.239379
H      -1.543696      0.950689     -0.804033
H       0.196219      1.136874     -2.179683
H       1.940733      0.640105      0.253043
H       2.483218      0.630029     -1.406640
H       2.905369     -1.545919     -0.255998
