16
Extracted from Q-Chem output
C      -1.549159      0.098820      1.559383
C      -1.255966     -0.164848      0.119975
N      -0.991807      0.837022     -0.749620
C       0.183223      0.389671     -1.263392
C       1.455452      0.306019     -0.468914
C       1.924975     -1.123548     -0.331109
O       2.895598     -1.586214     -0.863248
H      -0.644634      0.288182      2.146649
H      -2.173596      0.995597      1.653730
H      -2.070912     -0.740741      2.019106
H      -1.421471     -1.145201     -0.301337
H      -1.504430      1.691450     -0.925351
H       0.283266      0.296561     -2.344780
H       1.282765      0.705218      0.534685
H       2.255322      0.878435     -0.950015
H       1.255782     -1.758284      0.290068
