16
Extracted from Q-Chem output
C       2.026628      0.894378      0.455503
C       0.052398     -1.544464      0.037359
C       0.589488      0.947029     -0.043795
C      -0.298082     -0.153961      0.547430
C      -1.724716     -0.255497     -0.038840
C      -1.184824     -1.478017     -0.805056
H       2.068555      1.020913      1.539619
H       2.623830      1.688285      0.003975
H       2.489944     -0.063589      0.216969
H       0.133587      1.908775      0.209271
H       0.569405      0.880128     -1.136794
H      -0.217587     -0.105405      1.639754
H      -2.472982     -0.518614      0.707902
H      -2.095261      0.590437     -0.621949
H      -0.786916     -1.172702     -1.786981
H      -1.763676     -2.387176     -0.975885
