16
Extracted from Q-Chem output
C       1.862442      0.226063      0.120633
C       0.254072     -0.727404      0.602843
C       0.247697      1.080778      0.213903
C      -0.841322      0.300019      0.842156
C      -1.755755     -0.350514     -0.189177
C      -0.528164     -1.156901     -0.674192
H       2.376749      0.206978      1.074657
H       2.244610      1.074042     -0.465079
H       2.124786     -0.659516     -0.450291
H       0.633698      1.860745      0.857182
H       0.087696      1.386994     -0.813366
H      -1.158113      0.605183      1.835526
H      -2.499657     -0.993309      0.280250
H      -2.263758      0.307039     -0.899322
H      -0.116865     -0.837695     -1.633287
H      -0.660712     -2.238881     -0.710391
