11
Extracted from Q-Chem output
O       2.152011      0.209335     -0.409149
C       0.894527      0.083543      0.169222
C       0.029752     -1.007362     -0.348502
N      -1.181075     -0.575151     -0.222303
C      -1.210909      0.792058      0.225149
C       0.034379      1.291519      0.390131
H       2.348249      1.150227     -0.362009
H       0.267762     -2.013969     -0.662568
H      -1.996353     -1.150320     -0.389147
H      -2.190265      1.239095      0.320781
H       0.964585     -0.263051      1.235755
