12
Extracted from Q-Chem output
C      -2.149919      0.006932      0.301463
C       0.167056      0.058177     -0.575411
C      -1.055412     -0.366983     -0.658463
O       2.307807     -1.358025      0.446057
C       2.314009     -0.196195      0.193945
O       3.309933      0.621949      0.532957
N       1.303937      0.521211     -0.531321
H      -1.791006      0.695848      1.064736
H      -2.977158      0.483946     -0.227240
H      -2.539900     -0.882079      0.799831
H      -1.266643     -1.051676     -1.472782
H       3.113011      1.498909      0.185758
