21
smiles: [C:1]([C:2]([C:3]([H:12])([H:13])[H:14])([C:4]([C:5]([C:6]([H:18])([H:19])[H:20])=[O:7])([H:15])[H:16])[H:11])([H:8])([H:9])[H:10].[H:17][H:21]
C       -1.77084500      -0.27231300      -0.93252800
C       -1.29051100      -0.20440500       0.51453200
C       -2.35329000       0.41424100       1.41709400
C        0.01953600       0.56872000       0.62251800
C        1.22832900      -0.12814900       0.02978100
C        2.43553400       0.73936300      -0.23219000
O        1.23684700      -1.30968600      -0.21125500
H       -2.69875900      -0.84274500      -1.00739000
H       -1.03228300      -0.75364700      -1.57480500
H       -1.96695600       0.73124300      -1.32347000
H       -1.09354900      -1.22577800       0.85262900
H       -3.29036800      -0.14296100       1.35722200
H       -2.56482200       1.44771700       1.12582700
H       -2.03624300       0.42148700       2.46265800
H        0.26997300       0.75248400       1.67548500
H       -0.07444400       1.56329600       0.17027000
H        3.60842800      -2.40329500      -2.30656100
H        2.61420700       1.43057100       0.59375600
H        2.24514400       1.34457800      -1.12279900
H        3.31248000       0.11930600      -0.40467500
H        3.08359800      -2.24845300      -1.80164100
