21
Extracted from Q-Chem output
C      -1.526102     -0.770491     -1.054863
C      -1.093037     -0.326146      0.340029
C      -2.216109      0.446406      1.025707
C       0.179814      0.517994      0.314241
C       1.465635     -0.230370      0.016082
C       2.700130      0.638762     -0.075092
O       1.615619     -1.436002      0.551792
H      -2.459442     -1.334421     -1.004508
H      -0.790353     -1.416166     -1.537750
H      -1.694937      0.091677     -1.707589
H      -0.866598     -1.217288      0.931653
H      -3.129365     -0.150222      1.071317
H      -2.450709      1.367157      0.482521
H      -1.944934      0.720734      2.047538
H       0.358930      0.924427      1.317850
H       0.073200      1.374813     -0.359921
H       1.285304     -0.486648     -1.392401
H       2.937409      0.937967      0.948703
H       2.544004      1.530919     -0.683162
H       3.538887      0.061098     -0.458439
H       1.417645     -1.248230     -0.807418
