14
Extracted from Q-Chem output
N       1.692513      0.853842      1.374562
C       0.559849      0.119002      1.497681
O      -0.141422      0.154062      2.485103
C       0.199636     -0.748056      0.302493
C      -1.032730     -0.175384     -0.358228
C      -1.013491      0.860454     -1.410791
O      -1.291042     -0.883467     -1.614714
H       1.933664      1.485822      2.117476
H       2.233887      0.859761      0.531740
H      -0.010254     -1.749532      0.683498
H       1.007466     -0.811289     -0.429113
H      -1.895444     -0.195686      0.306571
H       0.021677      0.885017     -1.793000
H      -2.234647     -0.848083     -1.800848
