14
Extracted from Q-Chem output
N       1.792238      0.452659      1.813413
C       0.634646      0.602704      1.121184
O      -0.117239      1.534809      1.304621
C       0.363052     -0.470323      0.079009
C      -1.090778     -0.486432     -0.308922
C      -1.643046      0.538065     -1.210356
O      -1.272490     -1.151314     -1.574752
H       2.048125      1.163874      2.474688
H       2.419301     -0.310937      1.647434
H       0.678553     -1.450220      0.447086
H       0.964613     -0.246061     -0.807354
H      -1.746765     -0.872554      0.470310
H      -0.829005      1.087808     -1.697239
H      -2.171544     -0.585614     -1.866692
