13
Extracted from Q-Chem output
O      -1.882259     -0.116959      1.947704
C      -1.162662     -0.408529      0.905815
C      -0.241133      0.723476      0.558725
N       0.744946      0.516773     -0.477987
C       1.325894     -0.807341     -0.600664
C       0.369840     -0.306030     -1.612369
H      -1.691268      0.761943      2.338308
H      -0.617479     -0.756689     -1.604053
H       0.282381      1.056929      1.469905
H      -0.891020      1.558140      0.250399
H       0.958467     -1.583116      0.064215
H       2.388466     -0.829783     -0.812166
H       0.725128      0.045615     -2.573830
