17
Extracted from Q-Chem output
C      -2.262274      0.033613      0.139253
C      -1.353280      0.756101     -0.804713
C       0.713663      0.920555      0.648805
C      -0.092945      1.116405     -0.599613
C       1.392368     -1.733886     -0.140513
C       2.270950     -0.749800      0.009772
O       2.050618      0.531173      0.369127
H      -3.102730      0.670695      0.426813
H      -1.763079     -0.285993      1.053444
H      -2.687495     -0.850303     -0.342448
H      -1.790539      1.008595     -1.767060
H       0.812789      1.871190      1.177030
H       0.256842      0.202507      1.335885
H       0.437193      1.634820     -1.393409
H       1.757207     -2.711507     -0.420484
H       0.326033     -1.610855     -0.018078
H       3.331878     -0.908347     -0.149021
