17
Extracted from Q-Chem output
C      -2.146353     -0.076545      0.162357
C      -1.128447      0.579148     -0.714128
C       0.539547      1.056452      0.682927
C       0.261371      0.409218     -0.596300
C       1.015034     -1.240654     -0.340825
C       2.198724     -0.685823      0.185315
O       2.108097      0.152985      1.130873
H      -2.961362      0.603070      0.421985
H      -1.729776     -0.462133      1.093700
H      -2.602726     -0.926944     -0.361350
H      -1.511136      1.001171     -1.638678
H       0.878191      2.085362      0.679161
H      -0.061413      0.775576      1.535603
H       0.813048      0.855499     -1.420533
H       1.097647     -1.844457     -1.239381
H       0.291031     -1.625328      0.370907
H       3.139443     -0.727890     -0.379269
