14
Extracted from Q-Chem output
C       2.529287     -0.357096      0.430405
C       1.258726     -0.048631      0.184573
C       0.091628     -0.908499      0.054286
C      -0.974603     -0.143589     -0.199589
N      -2.278416     -0.477211     -0.466538
C      -0.532842      1.289265     -0.253621
O       0.853644      1.253012      0.012356
H      -0.712718      1.731744     -1.240073
H       2.813351     -1.390474      0.563262
H       3.285579      0.410846      0.504121
H       0.123804     -1.983295      0.148572
H      -2.562994     -1.411160     -0.227613
H      -2.974508      0.218333     -0.261555
H      -1.037087      1.907336      0.499368
