14
Extracted from Q-Chem output
C       2.421481     -0.001203      0.047896
C       0.944202      0.122332      0.005722
C      -0.050743     -0.788255     -0.110387
C      -1.281796     -0.053399     -0.089862
N      -2.554209     -0.608800     -0.253297
C      -0.931546      1.248220      0.037604
O       0.430455      1.364476      0.090753
H       2.882647      0.532620     -0.785349
H       2.706248     -1.050509     -0.015046
H       2.822581      0.412067      0.975358
H       0.066393     -1.856187     -0.210090
H      -2.659589     -1.497797      0.209123
H      -3.302506      0.011619      0.010913
H      -1.493618      2.164815      0.086662
