13
Extracted from Q-Chem output
N       1.865506      1.093241      0.799750
C       0.828067      0.486519      0.308392
C       0.357070     -0.764163     -0.055396
O       1.065294     -1.942315     -0.008274
C      -1.032510     -0.695268     -0.568175
C      -1.340694      0.742620     -0.470318
N      -0.313117      1.341253      0.017113
H      -1.171637     -1.017349     -1.611064
H       2.628682      0.440230      0.926416
H       1.267194     -2.153182      0.906990
H      -1.773486     -1.258630      0.018489
H      -2.243078      1.262693     -0.758556
H      -0.222349      2.334495      0.191771
