9
Extracted from Q-Chem output
O      -2.424449     -0.702710     -0.096904
C      -1.749964      0.287776     -0.047669
C      -0.286071      0.276334     -0.005298
N       0.582564      1.196812      0.052026
C       1.657043      0.209859      0.053853
N       0.862263     -0.828939     -0.004863
O       0.929438     -2.035095     -0.041520
H      -2.167076      1.312041     -0.028524
H       2.728828      0.305433      0.091102
