11
Extracted from Q-Chem output
C       1.203983     -0.629764     -0.227907
N       0.503100      0.246914      0.694293
C      -0.647361      0.893405      0.158198
C      -2.466442     -0.782771     -0.675862
N      -1.681875     -0.007060     -0.305193
H       0.591547     -1.461018     -0.599506
H       2.083750     -1.039637      0.267040
H       1.546550     -0.048537     -1.086818
H       0.277255     -0.231384      1.554738
H      -1.095785      1.538988      0.912798
H      -0.359979      1.508555     -0.696449
