11
smiles: [C:5](=[O:6])([H:10])[H:11].[N:1]#[C:2][C:4](=[C:3]([H:7])[H:8])[H:9]
N        1.04467200       1.66754900       0.70846100
C        1.17583400       0.52734100       0.75207500
C        0.45713800      -1.74461800       0.34352400
C        1.35713300      -0.89242800       0.81519500
C       -1.58059800       1.45614000      -1.05580700
O       -1.61373400       0.29881400      -1.35490500
H        0.62359800      -2.81211500       0.40655300
H       -0.46289400      -1.40231700      -0.11293900
H        2.27866500      -1.23208800       1.27266100
H       -1.77533400       1.79906100      -0.02141900
H       -1.35389400       2.24617000      -1.79732500
