11
Extracted from Q-Chem output
N       2.346526      0.972768      0.208348
C       1.360610      0.361292      0.259767
C       0.644139     -1.145658     -0.251745
C      -0.049313     -0.139322      0.466397
C      -1.276171      0.764546     -0.213668
O      -2.252136      0.012146      0.129549
H       0.955521     -2.080254      0.203882
H       0.777330     -1.043186     -1.322972
H      -0.248131     -0.341153      1.514998
H      -1.173808      1.760905      0.258286
H      -0.993757      0.828259     -1.285755
