15
smiles: [C:1](=[C:2]1[C:6]([H:13])([H:14])[N:7]1[H:15])([H:8])[H:9].[C:3](=[C:4]=[N:5][H:10])([H:11])[H:12]
C       -1.81148100       1.32242400       0.46429600
C       -1.38492800       0.14233700       0.07266600
C        2.90132100      -0.58533800      -0.06166800
C        2.23944600       0.53359900      -0.17469200
N        1.71269700       1.62324100      -0.30756800
C       -0.95967800      -1.21863100       0.31716600
N       -1.10279400      -0.63584300      -1.04487900
H       -2.10196000       2.07683500      -0.25548600
H       -1.87026400       1.56095300       1.51721600
H        0.71364000       1.65663600      -0.12687600
H        3.00282200      -1.24247900      -0.91292700
H        3.34154300      -0.86109900       0.88543300
H       -1.70598600      -1.92890600       0.65918500
H        0.06189200      -1.44551200       0.59892300
H       -1.92119900      -0.95489800      -1.54874300
