17
smiles: [C:1](=[C:2]([C:3]([H:11])([H:12])[H:13])[H:10])([H:8])[H:9].[H:7][H:17].[N:4]1=[C:6]([H:16])[C:5]1([H:14])[H:15]
C       -1.61099100       0.59376500       1.25790000
C       -1.19120200       0.91579000       0.04428800
C       -1.65009100       0.27074000      -1.22435400
N        2.02527100       0.57290600      -0.79338700
C        2.32711100       0.19803900       0.65185100
C        2.36923900      -0.59775200      -0.55356500
H       -0.22013200      -1.91042600       0.43110000
H       -1.23679900       1.09885000       2.13998600
H       -2.34552900      -0.18979400       1.41484100
H       -0.45389500       1.70848700      -0.06160600
H       -2.38806500      -0.50885400      -1.03032600
H       -0.80847700      -0.17834400      -1.75816500
H       -2.09669700       1.00690100      -1.89769900
H        1.47670400       0.13809300       1.32336200
H        3.23903400       0.60541500       1.07621000
H        2.53755100      -1.52527400      -1.08227900
H       -0.06783900      -2.62328700       0.27908500
