13
smiles: [C:1]([C@@:2]1([H:9])[C:3]([H:10])=[C:4]([H:12])[O:5]1)([H:6])([H:7])[H:8].[H:11][H:13]
C        1.02684900      -0.31657100      -0.93528400
C        0.47232600       0.85604800      -0.17460700
C       -0.81547800       0.70883400       0.59896800
C       -0.08848600       0.89977300       1.69574200
O        1.15118700       1.04054500       1.12075700
H        2.06774100      -0.13645900      -1.20932300
H        0.96951900      -1.22326600      -0.33222500
H        0.45279000      -0.46859200      -1.85176600
H        0.55638700       1.78975000      -0.73574100
H       -1.84959600       0.54132900       0.35564600
H       -2.10371500      -2.58918400      -0.76159600
H       -0.21595500       0.97060200       2.76771700
H       -1.68544400      -2.14640000      -0.33337900
