13
Extracted from Q-Chem output
C       1.688143     -0.277416     -0.004690
C       0.358553      0.278222     -0.445012
C      -0.897627     -0.586340     -0.255954
C      -1.418801      0.605178      0.552386
O      -0.154125      1.274956      0.462169
H       2.442669      0.510874      0.015756
H       1.612307     -0.708079      0.995632
H       2.020972     -1.054274     -0.697384
H       0.438680      0.699240     -1.454804
H      -1.451072     -0.844786     -1.156501
H      -0.722563     -1.485320      0.334667
H      -1.702795      0.410570      1.589394
H      -2.214340      1.177174      0.064341
