13
Extracted from Q-Chem output
C       1.759314     -0.340855      0.016255
C       0.535015      0.317495     -0.543017
C      -0.878141     -0.295628     -0.298498
C      -1.011518      0.796867      0.609385
O       0.098043      1.445309      0.348755
H       2.603398      0.349193      0.033590
H       1.575082     -0.706763      1.027130
H       2.022179     -1.190790     -0.615497
H       0.676681      0.716408     -1.546295
H      -1.491144     -0.291805     -1.193338
H      -1.305358     -1.206447      0.245911
H      -1.669917      1.038754      1.431946
H      -2.943657     -0.682315      0.637292
