17
smiles: [C:1]([O:2]/[C:3](=[C:4](/[C:5]([H:14])([H:15])[H:16])[C:6](=[O:7])[H:17])[H:11])([H:8])([H:9])[H:10].[H:12][H:13]
C        2.64382800      -0.26420700       0.79599600
O        1.48627000       0.49354200       0.49279400
C        0.35012700      -0.20858200       0.36267500
C       -0.84348700       0.34508100       0.11243600
C       -2.08241000      -0.48574300      -0.02833100
C       -0.97222400       1.80045000      -0.02856200
O       -2.02530800       2.35304400      -0.24742900
H        2.53881900      -0.77055600       1.75958700
H        3.47214200       0.43801300       0.84904900
H        2.84493300      -1.00142300       0.01369800
H        0.45165200      -1.28817700       0.47241200
H       -0.23650300      -1.15929600      -3.22970000
H       -0.23600600      -0.81944200      -2.56719300
H       -2.53546600      -0.34211900      -1.01091600
H       -1.86588700      -1.54684900       0.10232900
H       -2.83121800      -0.19085000       0.70877800
H       -0.04082200       2.38438400       0.07636800
