17
Extracted from Q-Chem output
C       2.570035     -0.360271      0.555894
O       1.328428      0.330705      0.514357
C       0.305034     -0.343509     -0.021249
C      -0.979757      0.298850     -0.218594
C      -2.233636     -0.451130      0.133365
C      -1.007637      1.676835     -0.598926
O      -2.002531      2.377939     -0.660437
H       2.456572     -1.338738      1.031034
H       3.245712      0.257715      1.140095
H       2.964455     -0.487732     -0.456771
H       0.242841     -1.406253      0.219910
H       0.916697     -0.657235     -1.374679
H      -0.015245     -0.229241     -1.311483
H      -3.085165      0.170091     -0.142722
H      -2.328028     -1.401377     -0.401198
H      -2.309285     -0.660413      1.204864
H      -0.018578      2.103703     -0.880002
