11
smiles: [H:7][H:11].[N:1]#[C:2][C:3]1=[C:6]([H:10])[O:5][C:4]1([H:8])[H:9]
N        2.57151500      -0.75240000      -0.63421300
C        1.62812500      -0.28834400      -0.16732100
C        0.46396200       0.25406700       0.40458500
C       -0.86538100      -0.27656300       0.88017600
O       -1.20319800       1.10382300       1.23752100
C        0.02309400       1.46174000       0.77890200
H        0.01737800      -1.14320500      -2.59663900
H       -0.85802300      -0.90703500       1.76780300
H       -1.55022700      -0.64980800       0.12052200
H        0.36289300       2.48811300       0.79697300
H       -0.69684500      -1.23969700      -2.78381000
