11
Extracted from Q-Chem output
N       2.760149     -0.973534      0.828022
C       1.696476     -0.706622      0.464143
C       0.417695     -0.400317     -0.010694
C      -0.949215     -0.608234      0.617043
O      -1.307764      0.765848      0.196823
C      -0.097615      0.933205     -0.362146
H       0.051938      0.150695     -1.448497
H      -0.996874     -0.694655      1.703763
H      -1.631812     -1.320518      0.146129
H       0.390502      1.906372     -0.382463
H      -0.357600      0.964245     -1.802200
