17
Extracted from Q-Chem output
O       1.710480     -0.520200      1.286358
C       1.290563     -0.362567     -0.061377
C       0.074703     -1.225511     -0.381123
C      -1.168584     -0.692650      0.318183
C      -1.415800      0.775625     -0.039379
C      -0.299284      1.732624     -0.132913
C       1.017846      1.111169     -0.384426
H       1.071214     -0.105740      1.869372
H       2.145538     -0.706339     -0.648136
H       0.280717     -2.256381     -0.087173
H      -0.083302     -1.223954     -1.465860
H      -1.054225     -0.788180      1.403551
H      -2.043580     -1.294600      0.063427
H      -1.744590      0.862091     -1.097157
H      -2.255281      1.211406      0.508713
H       1.057811      1.271346     -1.479612
H       1.826695      1.749228     -0.016310
