17
Extracted from Q-Chem output
O       1.804342     -0.589641      1.310621
C       1.304775     -0.386655     -0.002378
C       0.076838     -1.234801     -0.308498
C      -1.174788     -0.626056      0.310078
C      -1.409392      0.782920     -0.237036
C      -0.232771      1.726286     -0.209763
C       1.020509      1.099551     -0.187706
H       1.152969     -0.275041      1.942002
H       2.129860     -0.679297     -0.655581
H       0.257737     -2.250168      0.049629
H      -0.048601     -1.294250     -1.395667
H      -1.067575     -0.582870      1.400933
H      -2.043895     -1.260912      0.124657
H      -1.752957      0.736819     -1.278575
H      -2.230936      1.275733      0.288707
H       0.609115      1.552757     -1.266585
H       1.902592      1.735492     -0.094876
