12
Extracted from Q-Chem output
O      -0.469135     -1.272322      0.584513
C      -1.126748     -0.311782      1.171515
C      -1.553792      0.772244      0.454652
C       0.478362      0.869453     -0.377054
C       0.675907     -0.544509     -0.263701
C       1.738598     -0.916206     -0.794460
H      -1.113285     -0.302845      2.263611
H      -1.971416      1.624825      0.976625
H      -1.849771      0.649591     -0.578300
H       0.213129      1.289877     -1.338320
H       1.032613      1.523199      0.286444
H       2.558773     -1.468348     -1.195904
