15
Extracted from Q-Chem output
C       2.016536      0.237554      0.188770
O       0.637198      0.321535      0.496263
C      -0.201543     -0.877389      0.133946
O       0.320222     -1.786990     -0.477983
C      -1.493214     -0.608182      0.495936
C      -0.436150      1.268901     -0.798068
O      -2.505001     -1.435834      0.083452
H       2.586686      0.273426      1.117331
H       2.292010      1.094558     -0.433849
H       2.217361     -0.687687     -0.351312
H      -1.763091      0.109351      1.251909
H       0.416029      1.937541     -0.863140
H      -1.324664      1.714328     -0.380401
H      -0.599962      0.652809     -1.671994
H      -2.101661     -2.167583     -0.395664
