12
Extracted from Q-Chem output
O      -1.011199      2.435509     -0.285889
C      -0.733682      1.315964     -0.169022
C      -1.103667      0.036833      0.220108
C      -0.293135     -1.090732     -0.373623
N       0.943324     -0.944316      0.426812
C       1.562326      0.195116      0.114809
O       1.030840      1.129901     -0.539676
H       0.052896     -0.334084      1.149233
H      -2.146573     -0.069181      0.490245
H      -0.099550     -1.026857     -1.446623
H      -0.739270     -2.053536     -0.139720
H       2.552973      0.369364      0.543514
