18
smiles: [C:1]([C:2](=[C:3]([H:12])[H:13])[H:10])([H:7])([H:8])[H:9].[C:4]1([H:14])=[C:6]([H:18])[C:5]1([H:15])[H:16].[H:11][H:17]
C       -1.74254000       0.34974300       1.10254300
C       -1.48916500      -0.05732400      -0.31393000
C       -2.00953500      -1.12266200      -0.90313700
C        1.82375500       1.25653600       0.89997700
C        2.03342700      -0.20620900       0.64025700
C        2.18637800       0.95680300      -0.29538400
H       -0.80975200       0.38502100       1.67122700
H       -2.18061900       1.35019800       1.14804300
H       -2.42130700      -0.34390700       1.60072300
H       -0.82489300       0.58512300      -0.88757800
H        1.04081600      -1.18260300      -2.16476300
H       -2.67763700      -1.79305800      -0.37196700
H       -1.78809900      -1.36429100      -1.93561200
H        1.55433000       1.99724000       1.63140000
H        2.92091800      -0.69989600       1.03406400
H        1.17108900      -0.86455800       0.54380300
H        1.18441700      -1.28130000      -2.88873100
H        2.44018800       1.26306900      -1.29446000
