12
Extracted from Q-Chem output
C      -0.061771      1.268654      1.069035
C      -0.223344      0.174182      0.054290
C      -1.418575      0.200407     -0.821508
O      -2.262498      1.055743     -0.760058
C       0.618122     -0.813992     -0.119975
C       1.430750     -1.804063     -0.323481
H       0.846809      1.133952      1.652489
H      -0.027969      2.238223      0.569768
H      -0.922235      1.285631      1.739567
H       1.318729     -2.739283      0.212951
H      -1.488140     -0.631486     -1.548642
H       2.247787     -1.716357     -1.030434
