12
Extracted from Q-Chem output
C      -0.121576      1.438192      0.266647
C      -0.130500     -0.073429      0.469641
C      -1.389302     -0.731581     -0.088470
O      -2.345010     -0.123559     -0.472644
C       1.043979     -0.740180     -0.092775
C       1.988303     -1.291232     -0.580259
H       0.761331      1.876454      0.730337
H      -0.112405      1.678891     -0.796246
H      -1.014936      1.880467      0.705361
H      -0.150895     -0.301180      1.544815
H      -1.364188     -1.839429     -0.102630
H       2.835199     -1.773414     -1.008475
