12
Extracted from Q-Chem output
C      -0.022638      1.156055      1.101275
C      -0.235730      0.163747      0.009209
C      -1.545701     -0.006887     -0.611817
O      -2.502076      0.692852     -0.376106
C       0.800602     -0.669943     -0.439085
C       1.940028     -1.076880     -0.817409
H       0.248947      0.669809      2.040315
H       0.798333      1.828042      0.834570
H      -0.937085      1.727047      1.255321
H       0.040417     -1.490557     -0.130561
H      -1.600936     -0.818487     -1.367127
H       2.542114     -1.952418     -0.641038
