8
Extracted from Q-Chem output
O      -3.227109      0.592887      0.314876
C      -2.105050      0.354211      0.176541
C      -0.817782      0.299125      0.001621
C       0.248317     -0.477613     -0.080995
C       1.599498      0.105104     -0.309764
O       2.589658     -0.570157     -0.381770
H       0.214916     -1.562421      0.012009
H       1.623966      1.206631     -0.407746
