8
Extracted from Q-Chem output
O      -2.484828     -0.633228      0.427675
C      -1.464891     -0.131110      0.058279
C      -1.039211      1.050228     -0.716656
C       0.034965      0.405688     -0.352921
C       1.471395      0.091139     -0.216413
O       1.892257     -0.858083      0.373993
H      -0.491759     -0.793641      0.434469
H       2.104124      0.838264     -0.726384
