17
Extracted from Q-Chem output
C      -1.784593     -0.600518      0.481567
C      -0.882861      0.372141     -0.261312
O      -0.958769      1.674474      0.278774
C       0.566720     -0.111090     -0.342024
C       1.471648      0.805824     -1.129673
C       1.418021     -1.270775      1.611618
O       1.072931     -0.178031      1.026810
H      -2.809426     -0.230624      0.470798
H      -1.767843     -1.587855      0.014642
H      -1.474092     -0.711205      1.523525
H      -1.234378      0.467460     -1.293144
H      -0.645046      1.641418      1.187047
H       0.591044     -1.133758     -0.735542
H       2.496118      0.433000     -1.124459
H       1.129009      0.861018     -2.164176
H       1.453635      1.810096     -0.708553
H       1.286132     -2.099726      0.860068
