17
Extracted from Q-Chem output
C       2.015949      0.611836     -0.430794
C       1.088758     -0.064972     -1.362779
C      -0.237792     -0.844245      1.375671
C      -1.018892     -0.329883      0.198722
O      -2.219423     -0.991942     -0.000122
C      -1.029509      1.062463     -0.212846
C      -0.311365      0.074858     -1.168541
H       2.714517     -0.131824     -0.033092
H       1.629470      1.232255      0.391169
H       2.652609      1.240504     -1.064507
H       0.045051     -1.889006      1.227377
H       0.667022     -0.271172      1.555736
H      -0.870208     -0.781117      2.263073
H      -2.048740     -1.935742     -0.056150
H      -1.960791      1.459843     -0.592602
H      -0.401079      1.761052      0.322595
H      -0.950354     -0.265067     -1.976078
