14
smiles: [H:12][H:13].[O:1]([C@@:2]1([H:8])[C:3]([H:9])([H:10])[C-:4]([H:11])[O+:5]=[C:6]1[H:14])[H:7]
O        0.90214000      -1.14694200      -1.77330100
C        0.56105900      -0.00926800      -0.97938600
C       -0.92147600       0.02026700      -0.54709400
C       -0.87548500      -0.62454000       0.78225600
O        0.33429800      -0.53644800       1.23458000
C        1.20651000      -0.00470400       0.36844400
H        0.89514400      -1.92684200      -1.21216000
H        0.81017700       0.84517900      -1.60380400
H       -1.60499500      -0.41753800      -1.27257700
H       -1.18656200       1.08111600      -0.40171800
H       -1.64108800      -0.94735600       1.46696200
H       -0.69340300       2.03265100       1.95147100
H       -0.03193700       2.03694700       1.60967800
H        2.24108100      -0.19962600       0.60413100
