15
Extracted from Q-Chem output
O       1.932668      0.475930     -0.724450
C       1.111277      0.162067      0.389427
C      -0.038555      1.173249      0.386676
C      -1.169294      0.400904     -0.216485
O      -2.276831      1.096207     -0.558476
C      -0.923295     -0.902632     -0.307815
C       0.439536     -1.222461      0.239103
H       2.595489     -0.210522     -0.817962
H       1.702005      0.222116      1.309934
H      -0.300387      1.507855      1.394394
H       0.224738      2.054039     -0.201145
H      -2.933400      0.494141     -0.916548
H       1.030896     -1.864115     -0.421983
H      -1.611709     -1.646633     -0.689619
H       0.380545     -1.735872      1.205454
