15
Extracted from Q-Chem output
O       2.095243      0.096334     -0.612897
C       1.102880      0.233863      0.369056
C       0.028576      1.272329     -0.006489
C      -1.027132      0.162138     -0.041121
O      -2.215090      0.390761      0.624893
C      -0.922455     -0.862848     -1.049195
C       0.031705     -0.867965      0.441035
H       2.718075     -0.580325     -0.339925
H       1.542306      0.417090      1.354345
H      -0.145521      1.989691      0.793778
H       0.184906      1.799269     -0.946958
H      -2.854657     -0.225263      0.256113
H      -0.081831     -1.755394     -0.364977
H      -0.151145     -0.627998     -1.786954
H      -0.216317     -1.430769      1.334673
