19
Extracted from Q-Chem output
C       0.865996      1.352713     -0.184915
C       0.479862     -0.949130      0.637461
C       1.144919     -1.839697     -0.389376
O       0.514279     -1.241957      1.806855
C      -0.225494      0.324837      0.151758
C      -1.116196      0.871401      1.264253
C      -1.067001      0.032064     -1.095338
H       1.481247      1.571252      0.690125
H       0.404065      2.285875     -0.514799
H       1.523340      1.009848     -0.986543
H       1.641249     -1.273799     -1.177874
H       0.382656     -2.461473     -0.865571
H       1.858143     -2.489521      0.112553
H      -1.597755      1.794664      0.934336
H      -1.893474      0.154188      1.532565
H      -0.539034      1.080503      2.164159
H      -1.824531     -0.728898     -0.893321
H      -0.459052     -0.306750     -1.935874
H      -1.585558      0.939809     -1.411189
