14
Extracted from Q-Chem output
O       2.672938      0.185037     -0.119482
C       1.614157      0.599902     -0.495283
C       0.332707     -0.164827     -0.380692
C      -0.586486     -0.208602     -1.467624
N      -1.038166     -0.387018      1.275067
C      -0.917951      0.655656      0.271374
C       0.124179     -1.154443      0.768609
H       1.517855      1.579855     -1.012382
H      -0.375748      0.669626     -2.108563
H      -1.904164     -0.896103      1.171319
H      -1.803335      0.835463     -0.355141
H      -0.537492      1.614787      0.627659
H       0.947879     -1.172265      1.482213
H      -0.107502     -2.165866      0.437630
