14
Extracted from Q-Chem output
O       0.181366      2.230476      0.652784
C      -0.210093      1.371568     -0.177504
C      -1.036113      0.166977      0.061256
C      -0.231974     -1.119523     -0.179653
C       0.997022     -1.227756      0.712183
C       0.568625      1.973852     -1.128710
H      -1.402045      0.212600      1.089328
H      -1.895646      0.200183     -0.613718
H      -0.902160     -1.964330     -0.005620
H       0.064908     -1.165204     -1.230361
H       1.500417     -2.184034      0.564954
H       0.727130     -1.149978      1.767914
H       1.715356     -0.435546      0.491835
H       0.113541      2.805319     -1.667469
