14
smiles: [C:1]12([H:8])[C:2]3([H:9])[C:3]([H:11])=[C:4]([H:12])[C:5]1([H:13])[C:6]23[H:14].[H:7][H:10]
C       -1.13485600      -0.14646200      -0.01604400
C       -0.20138000       0.21131800      -1.15695300
C        1.18440300       0.40252900      -0.60199500
C        1.26078400      -0.40331900       0.45147200
C       -0.07832000      -1.08354900       0.53816600
C       -0.65080600      -1.20699600      -0.86052100
H        0.00213300       2.09090500       1.61644300
H       -2.11366700       0.17644700       0.30249000
H       -0.57732200       0.73221400      -2.02764400
H       -0.29708000       2.68402100       1.95268300
H        1.93524900       1.06784900      -1.00122000
H        2.08917300      -0.56106400       1.12571100
H       -0.33458700      -1.80880400       1.29915100
H       -1.12367500      -1.99425300      -1.42673700
