12
Extracted from Q-Chem output
C      -1.002596      1.080594     -0.720547
C      -0.518544     -0.163147     -0.285598
N       0.180645     -1.228380     -0.895659
C       0.722809     -0.647660      0.346636
C       1.871819      0.225772      0.305751
N       2.801898      0.897009      0.297293
H      -1.485431      1.149965     -1.683753
H      -1.720220     -0.068389      0.102623
H      -0.815277      1.960705     -0.125316
H      -1.484254     -1.023746      0.468691
H       0.649611     -0.878704     -1.726408
H       0.683217     -1.311501      1.200726
