10
Extracted from Q-Chem output
N       1.992573     -0.160902     -0.081247
C       3.142223     -0.348804     -0.129798
C       0.634964      0.030460     -0.023330
C      -0.008350      1.222368      0.007766
O      -1.335712      1.014618      0.063072
C      -1.540439     -0.322570      0.067305
C      -0.368664     -0.987906      0.015859
H       0.336888      2.241546     -0.003338
H      -2.567104     -0.644718      0.109096
H      -0.215061     -2.053770      0.005664
