13
Extracted from Q-Chem output
C      -2.192588     -0.377326     -0.207019
O      -1.244262      0.273397      0.641610
C       0.105471      0.005691      0.337555
C       0.198333      1.277307     -0.272391
N       2.671819      1.438952     -0.426227
C       3.082404      0.371600     -0.384428
N       0.747126     -1.060939      0.501318
H      -1.943906     -0.194594     -1.253369
H      -3.163439      0.053024      0.027595
H      -2.207300     -1.450038     -0.003036
H       0.336085      2.083520      0.451014
H       3.441596     -0.633144     -0.340872
H       0.171896     -1.787013      0.916669
