16
Extracted from Q-Chem output
C       2.003012      0.140557      0.063311
C       0.543391     -0.186944      0.102409
C      -0.499726      0.492496      0.955839
C      -0.979091      1.122647     -0.352498
N      -0.399543     -0.051182     -1.078722
C      -1.253239     -1.135078     -0.523149
C      -0.813767     -0.986635      0.954318
H       2.132346      1.176759     -0.256627
H       2.532420     -0.506887     -0.635474
H       2.442600      0.029438      1.055119
H      -0.301394      1.006409      1.888471
H      -2.046545      1.285150     -0.518134
H      -0.426257      2.026278     -0.609476
H      -0.976102     -2.099043     -0.948667
H      -2.320314     -0.964838     -0.682147
H       0.474469     -1.333822      0.584108
