16
Extracted from Q-Chem output
C       1.926351     -0.763901     -0.222567
O       0.894868      0.200345     -0.359786
C       0.304514      0.799895      0.961824
C      -1.047500      1.129792      0.647464
C      -1.808282     -0.047599      0.063639
C      -0.872137     -0.338158     -1.024795
H       1.621603     -1.581830      0.442528
H       2.157033     -1.164489     -1.209850
H       2.826558     -0.295794      0.181292
H       0.437876     -0.038972      1.658930
H       0.936919      1.641347      1.240286
H      -1.235499      2.101127      0.201717
H      -2.781648      0.272087     -0.310327
H      -1.941190     -0.881258      0.757009
H      -0.444216     -1.322675     -1.189138
H      -0.902473      0.303043     -1.894363
