14
Extracted from Q-Chem output
O      -1.509846      0.861855      1.307534
C      -0.432965      1.407720      1.320629
C      -1.223304     -0.462864     -1.184073
N      -0.050525     -0.447204     -0.690426
C       0.912799      0.670791     -0.611258
C       0.846567      0.403847      0.888414
C       0.351717     -1.007623      0.619372
H      -1.488280      0.247287     -1.956977
H      -1.929425     -1.208401     -0.844529
H       0.490992      1.637015     -0.926300
H       1.828217      0.440482     -1.160231
H       1.681405      0.615628      1.544268
H       1.054175     -1.835297      0.498398
H      -0.524147     -1.294920      1.215224
