13
Extracted from Q-Chem output
C       0.646943     -0.747952      0.559096
C      -0.663466     -1.054231     -0.162784
O      -0.999069      0.177479     -0.894845
C      -0.949913      1.374233     -0.021931
N       0.282427      1.640261      0.264530
C       1.146333      0.619916      0.116681
H       0.451636     -0.715829      1.639216
H       1.388233     -1.525476      0.375105
H      -0.577860     -1.815258     -0.940274
H      -1.508122     -1.261309      0.487658
H      -1.686892      2.092224     -0.347532
H       2.185421      0.840618      0.330149
H      -0.048739      0.311591     -1.325031
