15
Extracted from Q-Chem output
C      -1.697823      0.363332      0.712487
C      -1.288155      0.264824     -0.570703
O      -0.219692      0.861618     -1.161307
C       0.974161      0.999455     -0.411810
C       1.614558     -0.349308     -0.167847
O       0.791411     -1.111492      0.715886
C      -0.327077     -1.544921      0.151021
H      -1.105308      0.804617      1.500464
H      -2.675405     -0.016921      0.969699
H      -1.952921     -0.131149     -1.326606
H       0.794057      1.520688      0.534320
H       1.632502      1.617327     -1.022544
H       1.726099     -0.890701     -1.109924
H       2.581040     -0.235583      0.324040
H      -0.920016     -1.972546      0.982309
