11
Extracted from Q-Chem output
O      -2.383642      0.830249     -0.176887
C      -1.212423      0.218816     -0.312550
N      -0.051773      1.026565     -0.296969
C       0.879894      0.160866     -0.444878
O       2.170527      0.434252     -0.494351
C       0.344835     -1.234207     -0.560772
N      -1.084268     -1.040582     -0.454048
H      -2.215574      1.772788     -0.088242
H       2.281880      1.388292     -0.401680
H       0.732066     -1.876916      0.234810
H       0.628189     -1.688736     -1.514310
