11
Extracted from Q-Chem output
O       1.935046      0.748651      0.143329
C       0.709871      0.183516      0.048348
C       0.217388     -1.047962     -0.027073
C      -1.247066     -0.952099     -0.109490
C      -1.748327      0.303106     -0.091115
N      -0.396299      1.113586      0.018315
H       2.603830      0.060505      0.159147
H       0.804256     -1.956170     -0.026468
H      -1.880132     -1.826295     -0.178956
H      -0.455502      1.685034      0.858500
H      -0.360707      1.744973     -0.779187
