11
Extracted from Q-Chem output
O       2.003923      0.711882      0.007048
C       0.748013      0.216003     -0.038760
C       0.220075     -1.029228     -0.000030
C      -1.204099     -0.896894     -0.048703
C      -1.657355      0.389662     -0.214102
N      -0.291030      1.123441     -0.106209
H       2.629964     -0.013659      0.049057
H       0.782673     -1.947454      0.090212
H      -1.884405     -1.734187      0.023207
H      -1.051004      1.191539      0.764140
H      -0.182836      2.038675     -0.517495
