12
Extracted from Q-Chem output
O      -2.144363      0.434881     -0.655055
C      -1.009907      0.141179     -1.190583
C       0.120648      0.597959     -0.279729
O      -0.335902      1.098193      0.971701
C       1.131643     -0.520344     -0.081740
O       0.586452     -1.526468      0.754941
H      -1.992428      0.876374      0.219906
H       1.435494     -0.914414     -1.054501
H       0.600755      1.422955     -0.821994
H      -0.257724      0.373131      1.603922
H       2.012440     -0.138304      0.435726
H      -0.021942     -2.059833      0.236710
