21
smiles: [C:1]([C:2]([C:3]([H:11])([H:12])[H:13])([C:4]([H:14])([H:15])[H:16])[C:5]1=[C:6]([H:18])[C:7]1([H:20])[H:21])([H:8])([H:9])[H:10].[H:17][H:19]
C       -0.59987800       1.68058400       0.22314500
C       -0.63762600       0.18258200      -0.08027600
C       -1.67874400      -0.11514100      -1.16606600
C       -0.97837100      -0.60906500       1.18819000
C        0.69495600      -0.25937800      -0.56957800
C        1.91835800      -0.02558600      -0.89144800
C        1.47212600      -1.45295500      -1.04469400
H        0.14906000       1.90364200       0.98563600
H       -0.35114700       2.25358700      -0.67240200
H       -1.57063300       2.02400400       0.58858200
H       -2.67551500       0.17164100      -0.82265600
H       -1.45999000       0.43953400      -2.08063800
H       -1.69476900      -1.17934200      -1.40957000
H       -0.25085000      -0.41279100       1.97817900
H       -1.96735500      -0.32501300       1.55540600
H       -0.98264900      -1.68245800       0.98888400
H        2.34503500       0.36804900       2.00633000
H        2.74134700       0.65722900      -1.00444000
H        2.50830800       0.50932300       2.71896900
H        1.80340400      -2.20204400      -0.32481700
H        1.28731700      -1.85650500      -2.04080900
