15
Extracted from Q-Chem output
C      -0.891924      1.338940     -1.363302
N      -0.542138     -0.154676      0.063230
C      -1.125281     -1.221989      0.831084
C       0.711946      0.134186      0.000412
O       0.999410      1.090694     -0.774783
C       1.792499     -0.593172      0.745562
H      -1.869177      1.337994     -0.901087
H      -0.509209      2.339911     -1.513477
H      -0.826421      0.709007     -2.238410
H      -0.751097     -2.208472      0.533215
H      -2.204752     -1.222722      0.668695
H      -0.959400     -1.101590      1.908250
H       2.722652     -0.032976      0.706798
H       1.950290     -1.572248      0.288047
H       1.504228     -0.756609      1.784953
