10
Extracted from Q-Chem output
O      -1.192557      1.956353      0.487801
C      -0.628834      0.901824      0.272854
C      -1.033997     -0.467069      0.243805
N       0.121920     -1.318284     -0.007074
C       1.126329     -0.489522     -0.213999
N       0.758161      0.786102     -0.035493
H      -1.927038     -0.907097      0.652794
H      -0.677612     -1.278514     -0.838102
H       2.115058     -0.799051     -0.515446
H       1.363486      1.589358     -0.081445
