10
Extracted from Q-Chem output
N       2.203428     -0.251313      0.054860
C       0.968805     -0.048234      0.020606
C      -0.097331     -1.063959      0.054765
C      -1.265284     -0.438810     -0.000787
C      -1.002483      1.020463     -0.073649
O      -1.754254      1.936186     -0.135487
O       0.369487      1.189322     -0.056461
H       2.726821      0.620709      0.018907
H       0.115643     -2.120149      0.115517
H      -2.264832     -0.844214      0.001729
