10
Extracted from Q-Chem output
N       2.261715     -0.181286      0.112041
C       1.024573     -0.118928      0.049201
C      -0.010975     -1.181642     -0.007686
C      -1.233290     -0.629487     -0.066890
C      -0.930811      0.781773     -0.045894
O      -1.972799      1.470371     -0.093996
O       0.315587      1.153733      0.017757
H       2.708175      0.731186      0.138129
H       0.293094     -2.219124      0.004082
H      -2.454093      0.326704     -0.122611
