12
Extracted from Q-Chem output
N       2.049961     -0.183676      0.041760
C       0.668868      0.018330      0.002427
C      -0.095573      1.122534     -0.007488
N      -1.428677      0.694166      0.039713
C      -1.508905     -0.675370      0.078841
O      -2.497450     -1.376161      0.144478
N      -0.183956     -1.076434      0.031263
H       2.411984     -0.596803     -0.806893
H       2.551722      0.665826      0.246968
H       0.180585      2.160489     -0.061038
H      -2.243891      1.273272      0.096107
H       0.095333     -2.026174      0.193861
