19
Extracted from Q-Chem output
C      -1.784628      0.752554      0.225026
C      -1.273906     -0.647261     -0.043170
C      -0.210703     -0.728365     -1.173948
C       0.849348     -0.874906     -0.102550
C       2.159678     -0.712655     -0.082969
C       0.908905      2.641822      0.456115
C      -0.193874     -1.130320      0.964872
H      -2.389242      1.122814     -0.605596
H      -0.963254      1.472059      0.368600
H      -2.391544      0.787350      1.132319
H      -2.112728     -1.334084     -0.166959
H      -0.308164     -1.627234     -1.786522
H      -0.130809      0.137320     -1.835046
H       2.711732     -0.473459     -0.985036
H       2.726487     -0.815427      0.835638
H       1.320848      2.404240     -0.546338
H       1.569532      2.042904      1.114752
H      -0.101868     -0.562619      1.893154
H      -0.285712     -2.190460      1.210845
