8
Extracted from Q-Chem output
O      -1.456333     -0.453977      2.066137
C      -0.651041     -0.087000      1.280331
C       0.317233      0.439469     -1.706310
O       0.063548      1.085750     -2.627098
C       0.633989     -0.293787     -0.657012
O      -0.365544     -0.805090      0.160896
H      -0.059728      0.842468      1.344809
H       1.659688     -0.592912     -0.499785
