8
Extracted from Q-Chem output
O      -1.788484     -0.057715      0.980138
C      -0.630798      0.182632      0.909781
C      -0.045624      0.455652     -0.891641
O      -0.572583      0.999344     -1.791457
C       0.824582     -0.602112     -0.501307
O       0.426170     -1.054266      0.635332
H       0.020282      0.772019      1.562394
H       1.859426     -0.747159     -0.817021
