18
Extracted from Q-Chem output
C      -1.641217      0.731235      0.005372
C      -0.679709     -0.072076      0.879675
C      -0.994036     -1.479290      1.137243
C       0.825853     -1.119007     -0.977757
C       0.773539     -0.231872      0.266021
C       1.362215      1.146117     -0.021492
H      -1.341384      1.778165     -0.074475
H      -1.710690      0.313947     -1.001539
H      -2.643276      0.714938      0.438091
H      -0.504179      0.450782      1.826485
H       0.571703     -2.156927     -0.752022
H      -1.582276     -1.841944      0.267553
H       0.147616     -0.764647     -1.757100
H       1.834311     -1.112652     -1.396167
H       1.375709     -0.704635      1.044705
H       0.852742      1.637871     -0.852744
H       1.303298      1.799335      0.850985
H       2.414544      1.043681     -0.295400
