15
Extracted from Q-Chem output
C       0.733494      1.678083     -0.414565
C       0.948086     -1.407741      0.506963
O       0.855834     -2.304567      1.462541
C      -0.649384      1.230832      0.037204
C      -1.075669     -0.152387     -0.403922
O      -0.408684     -0.777479     -1.463012
C      -0.339203     -1.430220     -0.201463
H       0.815044      1.641032     -1.501287
H       0.914289      2.705207     -0.092852
H       1.512120      1.035120     -0.006244
H       1.679437     -2.299856      1.960398
H      -0.736756      1.281373      1.126993
H      -1.398246      1.926666     -0.353304
H      -2.156872     -0.291093     -0.426488
H      -0.943050     -2.336807     -0.130852
