13
Extracted from Q-Chem output
N       2.630545     -0.414269      1.606208
C       1.835367      0.173418      1.023856
C       0.859399      0.954881      0.312778
C       0.640919      0.729513     -1.157248
C      -0.415373      0.305099     -0.189967
C      -1.703890     -1.538961      0.269957
N      -0.554417     -1.087571      0.026001
H       0.763382      1.966981      0.683751
H       1.208549     -0.067589     -1.616138
H       0.460391      1.599684     -1.772505
H      -1.311138      0.920042     -0.112741
H      -1.827548     -2.606280      0.435303
H      -2.599543     -0.908895      0.325174
