13
Extracted from Q-Chem output
N       2.603714     -0.676619      1.432514
C       1.733361     -0.085454      0.972096
C       0.767557      0.736953      0.300801
C       0.426724      0.467731     -1.095101
C      -0.775177      0.314327     -0.176938
C      -1.275929     -1.062433      0.190887
N      -0.710999     -0.469741      1.295323
H       0.734270      1.760430      0.650231
H       0.831171     -0.432601     -1.537042
H       0.343909      1.315071     -1.762377
H      -1.483788      1.129655     -0.171564
H      -0.819590     -1.933219     -0.299338
H      -2.369891     -1.043064      0.099979
