13
Extracted from Q-Chem output
O       2.013942      0.067545     -0.468575
C       0.867012     -0.447712     -0.147062
C      -0.163266     -0.176934      1.188347
C      -1.381661     -0.067954      0.251613
C      -0.229081      0.398637     -0.580033
H       1.486077      0.534119     -1.629841
H       0.715356     -1.525125     -0.307589
H       0.061634      0.707435      1.771699
H      -0.099907     -1.097489      1.756134
H      -2.143671      0.664652      0.489731
H      -1.801292     -1.036468     -0.003517
H      -0.021134      1.452726     -0.424828
H       0.624889      0.639183     -2.048577
