10
Extracted from Q-Chem output
O       1.872922      0.058787     -0.849113
C       0.836698     -0.184618     -0.304413
C       0.025634      1.054566      0.515199
N      -0.850558      0.914763     -0.519847
C      -0.059045     -1.256323     -0.341359
H      -0.269485      0.807116      1.534533
H       0.721917      1.881264      0.423558
H      -1.707267      0.447677     -0.236248
H      -0.828445     -1.335064      0.410791
H       0.239294     -2.174943     -0.839365
