11
Extracted from Q-Chem output
C      -1.370411      0.152016     -0.356039
C       0.000170     -0.203778     -0.843285
O       0.255181     -0.497479     -1.983157
O       0.108525      0.421739      2.085654
C       1.058434      0.099473      1.425641
N       1.056563     -0.198031      0.082905
H      -1.684079     -0.532635      0.431790
H      -1.375439      1.149228      0.083202
H      -2.049743      0.100126     -1.202632
H       2.072607      0.007059      1.852295
H       1.940488     -0.452614     -0.332009
