11
Extracted from Q-Chem output
C      -1.375051      0.333030     -0.315770
C      -0.291332     -0.694957     -0.293188
O      -0.213935     -1.716798     -0.863101
O       0.233746     -0.755717      1.406812
C       1.261618     -0.066319      1.113809
N       1.300069      0.262891     -0.127609
H      -2.301735     -0.155733     -0.014112
H      -1.161736      1.165040      0.347238
H      -1.480515      0.688369     -1.340911
H       1.993686      0.193299      1.880081
H       2.047480      0.792003     -0.548882
