11
Extracted from Q-Chem output
C      -0.697533      0.763787     -0.179751
C      -0.695262     -0.786344     -0.006539
C       0.809803     -0.709061      0.235284
O       1.386323     -0.100500     -0.910527
C       0.807816      0.745696      0.071937
H      -1.256670      1.267832      0.608179
H      -0.996473      1.155952     -1.151696
H      -1.255268     -1.106297      0.871860
H      -0.989908     -1.384402     -0.868752
H       1.445106     -1.355469      0.826445
H       1.442067      1.508805      0.503560
