11
Extracted from Q-Chem output
C      -0.688435      0.788938     -0.082178
C      -0.829818     -0.715060     -0.316314
C       0.908607     -0.671568      0.855880
O       0.970703     -0.579514     -0.733078
C       0.785425      0.592978      0.109333
H      -1.211691      1.150281      0.802543
H      -0.969560      1.370740     -0.962840
H      -1.324400     -1.325740      0.424714
H      -1.036057     -1.038623     -1.334604
H       1.928369     -0.888521      1.189346
H       1.558086      1.348062     -0.001301
