13
Extracted from Q-Chem output
C      -1.627146     -0.457965     -0.295313
C      -0.460295      0.038898      0.522625
O       0.326166     -1.133544      0.985815
C       1.597953     -1.110728      0.761756
O       1.152384      0.130028     -1.264729
C       1.852182      0.164290     -0.016150
C       0.571307      0.850086     -0.199254
H      -2.210752     -1.177189      0.278716
H      -2.277819      0.376297     -0.562052
H      -1.271496     -0.935406     -1.207627
H      -0.793922      0.545187      1.430927
H       2.823666      0.640796     -0.028607
H       0.475075      1.922701     -0.318721
