13
Extracted from Q-Chem output
C      -1.676953     -0.363817     -0.282141
C      -0.441851     -0.039529      0.531391
O       0.333771     -1.208609      0.853353
C       1.618677     -1.067979      0.364805
O       1.456486     -0.454242     -0.966611
C       1.867844      0.406375      0.151713
C       0.544993      0.860208     -0.114921
H      -2.302431     -1.066599      0.266918
H      -2.262689      0.536707     -0.479030
H      -1.391455     -0.820524     -1.229665
H      -0.717305      0.415227      1.493329
H       2.799254      0.946618      0.081266
H       0.273764      1.784019     -0.614809
