13
Extracted from Q-Chem output
N       2.454515     -1.257570      1.632973
C       1.750952     -0.512978      1.117271
C       0.850963      0.414019      0.442773
C      -0.061158      0.600998     -1.554763
C      -1.163996      0.335800     -0.552092
C      -1.121873     -0.953972      0.143063
N      -0.556203      0.249366      0.781343
H       1.180049      1.437376      0.604886
H       1.018134      0.150660     -0.731438
H       0.146702      1.684160     -1.512539
H      -2.091815      0.890124     -0.662585
H      -0.433904     -1.708727     -0.225177
H      -1.996361     -1.330252      0.656669
