9
Extracted from Q-Chem output
O       0.643761      0.997196      0.950346
C       0.278553      0.653021     -0.391825
C       0.868671     -0.314645      0.509528
O      -0.297795     -1.081261      0.649298
C      -0.986545     -0.184973     -0.265154
H       1.835702     -0.770690      0.667954
H       0.653060      1.252130     -1.208088
H      -1.259343     -0.718927     -1.176172
H      -1.850947      0.296281      0.192615
