9
Extracted from Q-Chem output
O       0.373441      1.826439      0.595261
C       0.350723      0.776282     -0.115443
C       0.886567     -0.555965      0.406951
O      -0.107469     -1.313409      0.170857
C      -0.970392     -0.166674     -0.246006
H       1.742323     -0.950980      0.959471
H       0.768854      0.797159     -1.170190
H      -1.454190     -0.387897     -1.195114
H      -1.663970      0.030102      0.565006
