16
Extracted from Q-Chem output
C       1.314009     -0.930665      0.743063
C       1.274037      0.102104     -0.352944
C       0.417015     -0.079108     -1.554456
C      -2.086872      0.059209      0.945592
C       0.079958      1.011536     -0.560770
C      -1.112811      0.874918      0.252354
N      -2.014911      1.565389      0.770357
H       0.363832     -1.457709      0.829857
H       2.088587     -1.670837      0.533657
H       1.535807     -0.473955      1.709613
H       2.218395      0.606165     -0.526222
H       0.779696      0.234807     -2.523657
H      -2.869026     -0.458652      0.396630
H      -0.240494     -0.939605     -1.570481
H      -1.877784     -0.328080      1.939107
H       0.289442      2.033379     -0.852294
