16
Extracted from Q-Chem output
C       1.324725     -0.685164      0.928436
C       1.021424      0.139934     -0.293993
C      -0.273283      0.052144     -1.035364
C      -1.391793     -0.868353     -0.625350
C       0.050121      1.305895     -0.242253
C      -0.666076      1.566706      0.975394
N      -1.239214      1.763895      1.951324
H       0.462983     -0.780626      1.588376
H       1.643499     -1.688695      0.640251
H       2.129163     -0.227518      1.506211
H       1.887442      0.342778     -0.914274
H      -0.195672      0.200974     -2.106735
H      -2.343812     -0.510824     -1.020966
H      -1.219122     -1.873040     -1.015828
H      -1.495296     -0.940310      0.457011
H       0.304912      2.202204     -0.792241
