16
Extracted from Q-Chem output
C       1.596421     -0.439179      0.954759
C       1.299479      0.224652     -0.362343
C       0.114647     -0.186692     -1.166129
C      -2.437453     -1.480362      0.003630
C       0.128021      1.173509     -0.503644
C      -0.726943      1.419684      0.624243
N      -1.414988      1.604047      1.525696
H       0.678579     -0.727565      1.469699
H       2.187659     -1.342372      0.796631
H       2.157926      0.226162      1.612560
H       2.170410      0.533696     -0.929383
H       0.175998     -0.200732     -2.245783
H      -2.543751     -0.865357      0.918646
H      -0.519956     -0.966771     -0.741792
H      -3.059663     -0.923537     -0.726621
H       0.255142      2.035685     -1.144864
