8
Extracted from Q-Chem output
O      -1.767002      0.071154      0.729902
C      -0.848372      0.559086      0.021748
C       0.201700     -0.402289     -0.100965
C       1.571567     -0.020679     -0.214522
N       2.676220      0.294487     -0.267953
H      -0.932923      1.571341     -0.375805
H      -0.098912     -1.234772     -0.737627
H      -0.848319     -0.789479      0.883426
