16
Extracted from Q-Chem output
C       2.538087     -0.246859      0.055458
O       1.263881     -0.619420      0.553831
C       0.261033     -0.477841     -0.317835
C      -0.898576      1.254562      0.018625
C      -1.937220      0.179003     -0.220150
C      -1.059221     -0.997135      0.197991
H       2.592889      0.839620     -0.064730
H       2.725999     -0.727163     -0.906304
H       3.275340     -0.565751      0.790200
H       0.112135      0.618605     -0.793687
H      -0.640955      1.413417      1.063901
H      -0.961549      2.188629     -0.539875
H      -2.169001      0.116944     -1.286620
H      -2.879303      0.281841      0.320010
H      -1.040555     -1.066364      1.292734
H      -1.314663     -1.981364     -0.200725
