16
Extracted from Q-Chem output
C       1.917049     -0.406106     -0.843023
N       0.679901      0.221943     -0.433011
C       0.702661      0.958674      0.624944
O      -0.400940      1.491079      1.052312
C      -1.536388      1.137946      0.322194
C      -0.803249     -1.104363     -0.042720
O      -1.812061     -1.338470     -0.904902
H       1.692917     -1.358824     -1.327547
H       2.417356      0.219181     -1.584242
H       2.612563     -0.600852     -0.017801
H       1.572658      1.159159      1.246780
H      -2.385106      1.624439      0.798660
H      -1.413506      1.349328     -0.740839
H      -0.004859     -1.796907     -0.294209
H      -1.007571     -1.101839      1.022647
H      -2.521116     -0.733354     -0.661966
