18
smiles: [C:1]([O:2][C:3]([C:4][C:6]([H:16])([H:17])[H:18])([H:10])[H:11])([H:7])([H:8])[H:9].[C:5]([H:12])([H:13])([H:14])[H:15]
C        2.55145900       0.30797000       0.37753800
O        1.44994300       0.57485000      -0.44965200
C        0.58282100      -0.51249900      -0.56113700
C       -0.49382600      -0.34211200      -1.51859000
C       -1.42639800       1.62005500       1.32429100
C       -1.49982300      -1.40704200      -1.38531500
H        2.24049000       0.04312600       1.39748100
H        3.15373500       1.21399100       0.41725200
H        3.16654200      -0.51114300      -0.01961200
H        1.09979700      -1.39586700      -1.00894000
H        0.24189800      -0.85635100       0.43565000
H       -1.28335700       1.76957400       0.25515100
H       -0.45805200       1.48798500       1.80472600
H       -1.92490700       2.49014700       1.74881700
H       -2.03804200       0.73436200       1.48884500
H       -1.92639200      -1.69842400      -2.34592400
H       -1.25119900      -2.28979400      -0.77727100
H       -2.31567900      -0.86658700      -0.87748100
