10
Extracted from Q-Chem output
C      -1.243666     -0.393840     -0.077221
C      -0.101726      0.237158      0.558504
C       2.143580     -1.280553     -0.448304
N       2.093105     -0.112373     -0.318863
C       0.759191      1.108543     -0.115332
N       0.678497      2.253270     -0.399111
H      -2.047948     -0.621912      0.619199
H      -0.830628     -1.357810     -0.428454
H      -1.576944      0.152097     -0.957581
H       0.115826      0.049795      1.608497
