9
Extracted from Q-Chem output
N      -1.025065     -0.606983      0.005266
C      -0.706793      0.702861     -0.009980
C       0.663834      0.765722     -0.008260
C       1.074938     -0.580813      0.009770
N       0.043180     -1.406089      0.018438
H      -1.941185     -1.016720      0.008050
H      -1.462322      1.471697     -0.021964
H       1.276264      1.651272     -0.018197
H       2.077148     -0.980946      0.016878
