9
Extracted from Q-Chem output
N      -1.483527     -0.527849     -0.174203
C      -0.823148      0.552705     -0.012484
C       0.595167      0.536328      0.195629
C       1.196685     -0.743533      0.206076
N       1.124445     -1.940815      0.331174
H      -2.484884     -0.355400     -0.172137
H      -1.287981      1.542452      0.036434
H       1.207895      1.423272      0.173302
H       1.960308     -0.436231     -0.585754
