10
Extracted from Q-Chem output
O      -0.763279      0.021771     -1.404848
C      -1.148012      0.773304     -0.246298
C      -0.196614     -0.336693     -0.172136
O      -0.543044     -1.570820      0.327125
C       1.222882     -0.081184     -0.003997
C       2.384585      0.157239      0.141704
H      -1.418341     -1.790652     -0.004581
H      -2.165532      0.605104      0.096244
H      -0.798404      1.800439     -0.223829
H       3.421905      0.361440      0.267251
