10
Extracted from Q-Chem output
O      -1.484778     -0.182527     -1.462618
C      -1.084663      0.617335     -0.430239
C      -0.043361     -0.349838      0.011297
O      -0.419469     -1.568944      0.188491
C       1.334202     -0.054524      0.140899
C       2.479105      0.278438      0.263522
H      -1.283310     -1.525303     -0.343011
H      -1.831989      0.814939      0.363530
H      -0.619289      1.573758     -0.712229
H       3.501489      0.560575      0.372190
