14
Extracted from Q-Chem output
C      -1.697604     -1.353774     -0.260188
C      -0.664264     -0.442630      0.240171
N      -0.622682      0.750127      1.071651
O      -1.037715      1.880097      0.212222
C       0.486904      0.094797      0.397461
C       1.928478      0.337453      0.200935
O       2.475206     -0.420415     -0.851767
H      -2.412409     -0.794231     -0.865711
H      -1.257637     -2.143840     -0.866916
H      -2.238916     -1.801296      0.575699
H      -1.403735      2.495752      0.852780
H       2.008534     -0.192642     -1.658778
H       2.069095      1.415116      0.053554
H       2.473732      0.058045      1.105271
