16
smiles: [C:1](/[C:2](=[C:6](\[C:7]([H:14])([H:15])[H:16])[H:13])[H:11])([H:8])([H:9])[H:10].[N:3](=[C:4]=[O:5])[H:12]
C        1.43402700      -1.06087800      -0.18970100
C        0.09428600      -1.09883700       0.47692500
N        1.06054100       2.00633800       1.67614700
C        0.03576400       2.33220300       1.12661500
O       -0.95285300       2.52005600       0.54994200
C       -1.08596800      -0.80289700      -0.05552800
C       -1.37218900      -0.36017000      -1.45662600
H        1.38009400      -0.75100000      -1.23249300
H        1.90876500      -2.04507400      -0.15635200
H        2.10270200      -0.37090200       0.33170200
H        0.10589900      -1.40583400       1.51981500
H        1.62228000       2.59623800       2.26136500
H       -1.95744500      -0.88795000       0.58872500
H       -0.47520100      -0.29241600      -2.07065500
H       -1.85645200       0.61992200      -1.45941200
H       -2.06143800      -1.05356600      -1.94575900
