16
Extracted from Q-Chem output
C       1.325256     -0.477123      1.082724
C       0.276921     -0.029149      0.091476
C       0.700152      0.848278     -1.053796
C      -0.121368      1.412573      0.071414
C      -2.093130     -1.127957      0.651501
N      -2.074664     -0.753551     -0.574326
C      -0.759638     -1.083382     -0.158003
H       0.869368     -0.701062      2.049518
H       2.081162      0.295754      1.232208
H       1.834461     -1.378644      0.732050
H       1.743172      1.131582     -1.122038
H       0.213478      0.707547     -2.011444
H       0.363476      2.075948      0.775859
H      -1.155864      1.661081     -0.129067
H      -2.667203     -0.433252     -1.323885
H      -0.367923     -2.034452     -0.514180
