11
Extracted from Q-Chem output
C       1.813578     -0.213091      0.178676
N       0.603262     -0.673874      0.011696
C      -0.583285     -0.027499     -0.066080
N      -0.572742      1.370841      0.041586
C      -1.731548     -0.818180     -0.249514
N      -2.685727     -1.454841     -0.401236
H       2.624362     -0.920761      0.212696
H       1.953330      0.850439      0.277636
H       0.517622     -1.679851     -0.075364
H      -0.907484      1.847005     -0.783744
H      -1.055603      1.723303      0.855800
