16
Extracted from Q-Chem output
N       1.470712     -0.036383      2.028399
C       1.310400     -0.253789      0.614232
O       2.252649     -0.649537     -0.166574
C       0.035054     -0.870882      0.195394
C      -1.237929     -0.150099      0.093757
C      -1.427011      0.484525     -1.311795
O      -0.446935      1.443866     -1.601940
H       2.318318      0.495279      2.180059
H       1.565666     -0.920908      2.508877
H       0.877829      0.743165      0.199288
H       0.155137     -1.760690     -0.425181
H      -2.054446     -0.865971      0.234361
H      -1.295073      0.637205      0.848975
H      -1.456823     -0.306117     -2.068799
H      -2.386169      1.002889     -1.323483
H       0.356349      1.012430     -1.907179
