17
Extracted from Q-Chem output
C      -2.186191      0.869532      0.632990
C      -1.017627     -0.062409      0.589061
O       0.882212     -2.183061      0.548279
C       1.255083     -0.873399      0.174868
C       1.259051     -1.966384     -0.800862
C       0.214303      0.195715      0.161819
C       0.716238      1.507252     -0.368315
H      -2.607089      0.907935      1.640774
H      -1.936330      1.887277      0.336243
H      -2.983572      0.515655     -0.026361
H      -1.203860     -1.072248      0.944280
H       2.222449     -0.562311      0.570140
H       0.445038     -2.021193     -1.518514
H       2.194875     -2.428202     -1.103131
H      -0.045251      2.283731     -0.354732
H       1.567516      1.861406      0.219954
H       1.066642      1.396687     -1.398685
