17
Extracted from Q-Chem output
C      -2.067914     -0.136039      0.322007
C      -0.647152     -0.146309      0.822947
O      -0.113063     -1.473999      1.058798
C       1.041289     -1.152239      0.294687
C       0.667669     -0.901211     -1.124852
C       0.519156      0.196875     -0.100591
C       1.160612      1.543146     -0.207858
H      -2.402220      0.893381      0.173669
H      -2.160558     -0.673463     -0.622130
H      -2.729471     -0.607716      1.050709
H      -0.566246      0.428324      1.753348
H       2.005668     -1.493345      0.648674
H       1.496239     -0.755198     -1.808141
H      -0.190809     -1.412390     -1.545381
H       0.546722      2.222634     -0.804825
H       1.302146      1.992422      0.777948
H       2.137931      1.475126     -0.689009
