14
Extracted from Q-Chem output
C      -1.326456     -0.792686     -0.093537
C       0.603966      1.808809      0.636907
C       0.176420      1.174483     -0.662293
C       0.093581     -0.341616     -0.417272
C       1.033195     -0.483738      0.767251
O       1.058586      0.853642      1.382291
H      -1.363597     -1.861380      0.127023
H      -1.716915     -0.255646      0.774873
H      -1.997892     -0.599678     -0.931992
H       0.963541      1.446365     -1.377474
H      -0.744814      1.623117     -1.036633
H       0.474932     -0.903469     -1.271051
H       2.061897     -0.715711      0.488185
H       0.701089     -1.179315      1.536986
