14
Extracted from Q-Chem output
C      -1.784222     -0.102887      0.387915
C      -0.332684      0.156342      0.187727
C       0.296355      1.005649     -0.861223
C       0.732859     -0.430711     -0.697186
C       1.546952     -0.536400      0.575203
O       0.509660      0.113458      1.341452
H      -1.939305     -1.058086      0.891666
H      -2.225670      0.686653      1.000032
H      -2.303031     -0.120735     -0.571171
H       0.960664      1.813008     -0.571688
H      -0.313840      1.196220     -1.735836
H       0.667271     -1.167413     -1.484249
H       2.495263      0.007459      0.615476
H       1.689727     -1.562558      0.921883
