14
Extracted from Q-Chem output
C      -1.105035      0.859683     -0.532616
C      -1.405982     -0.237423      0.455117
C      -0.011408      0.004364     -0.000641
C       0.921538     -0.930879     -0.747592
O       2.027854     -0.504486      0.064157
C       1.205272      0.404495      0.813466
H      -1.407370      0.713931     -1.562508
H      -1.161469      1.884831     -0.187366
H      -1.666639      0.045764      1.467612
H      -1.909648     -1.124564      0.091201
H       0.719327     -2.000222     -0.628579
H       1.082273     -0.702584     -1.806118
H       1.175637      0.145330      1.876715
H       1.535649      1.441759      0.697151
