14
Extracted from Q-Chem output
C      -1.159124      0.916072     -0.538449
C      -1.438370     -0.204088      0.407768
C      -0.037888      0.039541     -0.023155
C       0.923691     -0.719291     -0.840605
O       1.937437      0.031933     -0.389540
C       1.199642      0.516100      0.656714
H      -1.443045      0.799201     -1.575415
H      -1.199279      1.929812     -0.163907
H      -1.679643      0.036562      1.434202
H      -1.915555     -1.094109      0.019895
H       1.148205     -1.745340      0.740815
H       0.966063     -1.228588     -1.790125
H       1.273313     -1.180559      1.328368
H       1.490209      1.461029      1.094250
