12
Extracted from Q-Chem output
O      -1.298508      2.142165      0.249935
C      -0.623325      1.148014      0.175582
C      -0.999402     -0.134918     -0.561393
C       0.180402     -1.088119     -0.349078
C       1.148607     -0.291749      0.481690
C       0.714817      0.931681      0.771250
H      -1.937307     -0.514815     -0.154392
H      -1.178990      0.100704     -1.611078
H      -0.108084     -2.004772      0.171774
H       0.644606     -1.401919     -1.287467
H       2.099329     -0.703084      0.800819
H       1.225948      1.687442      1.350818
