17
Extracted from Q-Chem output
C      -1.874237      1.111543     -0.482257
C      -1.425435     -0.289066     -0.220821
N      -0.147456     -0.596270     -0.392970
C       0.651516     -1.712337      0.060938
C       0.990363     -0.281559      0.253163
C       2.130136      0.604555     -0.093452
H      -2.836189      1.292346     -0.003080
H      -1.149756      1.825934     -0.085791
H      -1.991713      1.308044     -1.553272
H      -0.851249     -0.081055      1.638059
H      -2.128632     -1.105024     -0.351275
H       0.272260     -2.253107      0.931061
H       1.062967     -2.331902     -0.733445
H       0.007137      0.008589      1.594830
H       2.874297      0.567448      0.702168
H       1.792003      1.637978     -0.184949
H       2.619891      0.313206     -1.028893
