15
smiles: [C:1]([N-:2][N+:7]#[C:6][H:15])([H:8])([H:9])[H:10].[C:3](#[C:4][C:5]([H:12])([H:13])[H:14])[H:11]
C       -2.00126200       0.31379600      -0.73623300
N       -1.09027200       1.38418400      -0.33144700
C        0.88165700      -1.82005800       0.91854100
C        1.36870900      -1.10951200       0.08741900
C        1.96187800      -0.24340700      -0.92304200
C       -0.61855700       1.51077000       2.02370600
N       -0.80672200       1.36709300       0.85522600
H       -2.91411400       0.32724100      -0.13220100
H       -1.52876500      -0.66800100      -0.64019700
H       -2.25954100       0.47814700      -1.77928600
H        0.44869200      -2.45152000       1.65752500
H        1.27115800       0.55429700      -1.19916600
H        2.20569000      -0.81138900      -1.82184800
H        2.87900800       0.21227100      -0.54754600
H        0.18773200       1.08891400       2.60449700
