15
Extracted from Q-Chem output
C      -2.644136      0.041258     -0.331424
N      -1.537901     -0.076432      0.609645
C       0.264765     -1.338509     -0.147080
C       1.234546     -0.602485     -0.055577
C       2.642176     -0.181818     -0.140349
C       0.287080      1.354191      0.675832
N      -0.844845      0.945774      0.734751
H      -2.334420      0.518205     -1.266802
H      -3.468354      0.610246      0.105969
H      -3.000486     -0.965774     -0.541223
H      -0.391439     -2.163186     -0.293460
H       2.758220      0.627529     -0.862406
H       3.274606     -1.014914     -0.451342
H       3.004853      0.181824      0.822257
H       0.740629      2.196915      1.177154
