13
Extracted from Q-Chem output
C       2.330637      0.560835      0.844089
N       1.367138     -0.263676      0.355991
C       0.091632     -0.074590      0.213640
C      -1.137858     -0.901169      0.035581
C      -1.822122      0.426487      0.421482
O      -0.540118      1.080223      0.608249
H       2.053995      1.585602      1.026361
H       3.346978      0.279677      0.626695
H       1.673749     -1.184681      0.077410
H      -1.282787     -1.710116      0.755534
H      -1.351903     -1.264380     -0.970322
H      -2.393276      0.910356     -0.370762
H      -2.389346      0.415739      1.351592
