14
Extracted from Q-Chem output
O       2.279565      1.972565      0.445662
C       1.393216      1.302285     -0.006499
C       1.388232     -0.213139      0.018167
N       0.084876     -0.832961     -0.026046
C      -0.997559     -0.422193      0.914668
C      -1.882053     -0.291382     -0.301638
C      -0.831493     -0.583280     -1.075092
H       1.959455     -0.551415     -0.854344
H       1.936508     -0.549553      0.900404
H      -0.776248      0.512595      1.437564
H      -1.248780     -1.200097      1.637754
H       0.511244      1.773105     -0.492023
H      -2.941149     -0.170059     -0.454620
H      -0.632658     -0.700787     -2.133881
