14
Extracted from Q-Chem output
O       1.141914      1.820340     -1.264378
C       0.719460      0.940950     -0.528980
C       1.358779     -0.243616      0.262795
N       0.230982     -1.173279      0.133770
C      -0.936413     -0.639333      0.926261
C      -1.201997      0.315830     -0.198054
C      -0.300174     -0.391480     -1.027621
H       2.184929     -0.610185     -0.345604
H       1.711370     -0.036053      1.275429
H      -0.707177     -0.241466      1.916849
H      -1.696720     -1.418587      1.004831
H      -0.100899      1.323878      0.322082
H      -1.953025      1.065745     -0.407096
H      -0.272705     -0.678274     -2.067443
