17
Extracted from Q-Chem output
C      -2.372556      0.716320      0.346596
C      -1.180487     -0.165277      0.574175
C       0.309315     -1.474579     -0.273652
C       1.746323     -1.150558     -0.039815
C       2.085968      0.120513      0.077930
C       0.941183      1.062822     -0.165940
O      -0.133128      0.209160     -0.515169
H      -3.062666      0.593925      1.185950
H      -2.915188      0.448588     -0.562906
H      -2.117979      1.788111      0.278457
H      -0.673714      0.099546      1.512156
H       0.030948     -1.806565     -1.269000
H      -0.073415     -2.156412      0.474434
H       2.435581     -1.973085      0.113518
H       3.081725      0.476715      0.306755
H       0.684410      1.665884      0.712396
H       1.144704      1.728034     -1.010390
