13
Extracted from Q-Chem output
C      -2.083492      0.356299     -0.060748
C      -0.672418     -0.085646     -0.205921
N      -0.356107     -1.027411     -0.999504
O       1.032722     -1.235990     -0.937212
C       1.604301     -0.366314     -0.044806
N       2.827435     -0.317816      0.222685
C       0.502304      0.481033      0.520531
H      -2.729565     -0.234650     -0.706988
H      -2.412807      0.243658      0.974482
H      -2.182133      1.411954     -0.322749
H       0.662056      1.539929      0.310326
H       3.349084     -1.010333     -0.309310
H       0.424637      0.367809      1.603344
