17
Extracted from Q-Chem output
O       0.330433     -0.772140      1.608791
C       0.896571     -1.135815      0.472403
C       1.660878     -0.049112     -0.259023
C       0.774483      1.202390     -0.357717
C      -0.677822      0.882496     -0.715742
C      -1.154180     -0.522921     -0.796485
C      -1.582347      0.185733      0.284491
H       1.321327     -2.143571      0.479512
H       2.591349      0.182031      0.265447
H       1.924234     -0.410626     -1.257818
H       1.185252      1.875197     -1.113008
H       0.800160      1.741974      0.590861
H      -1.125399      1.573898     -1.427481
H      -1.562192     -1.172711     -1.557162
H      -0.036870     -1.302250     -0.334691
H      -2.570199      0.381587      0.671150
H      -0.629104     -0.270778      1.288333
