19
Extracted from Q-Chem output
C       1.562333      1.160221      0.323098
C       0.722666     -0.107298      0.139153
C       1.536387     -1.197262     -0.548148
C      -0.458602      0.337526     -0.705429
C      -1.880260     -0.790153     -0.373962
C      -1.690756      0.639610      0.066024
O      -1.672580      0.744564      1.472937
H       0.995322      1.957078      0.810142
H       2.435695      0.947591      0.942689
H       1.903158      1.538333     -0.642840
H       0.428242     -0.457691      1.136374
H       2.439926     -1.429221      0.020509
H       1.828506     -0.882788     -1.552482
H       0.962221     -2.123571     -0.639447
H      -0.968687     -0.879001     -1.162170
H      -2.687826     -0.974325     -1.074621
H      -1.780435     -1.501704      0.438744
H      -2.379980      1.357556     -0.376124
H      -1.333658      1.611113      1.703457
