13
Extracted from Q-Chem output
O      -1.828826      0.102874     -0.148647
C      -1.043661     -1.001468      0.325002
C       0.187193     -0.486645     -0.444271
C      -0.679343      0.772653     -0.657840
O      -0.261870      1.831621      0.125414
C       1.453223     -0.371841      0.250096
C       2.498094     -0.304675      0.829564
H      -0.887534      2.552982      0.027768
H      -0.926740     -0.985389      1.410580
H      -1.450311     -1.959789     -0.000258
H       0.322009     -1.020174     -1.385243
H      -0.849456      1.085495     -1.693680
H       3.425980     -0.235993      1.346073
