13
Extracted from Q-Chem output
O      -1.744754      0.419791      0.436746
C      -1.055062     -0.827011      0.147318
C       0.084022     -0.173230     -0.642471
C      -0.448640      1.232141     -0.211148
O      -0.073381      1.748099      0.914618
C       1.444050     -0.483922     -0.250209
C       2.563775     -0.744925      0.080547
H      -1.089855      1.002381      1.245714
H      -0.752567     -1.331849      1.063642
H      -1.701274     -1.472369     -0.443018
H      -0.041003     -0.316756     -1.716982
H      -0.788297      1.893008     -1.017863
H       3.561742     -0.965705      0.377662
