10
Extracted from Q-Chem output
N      -1.391871     -0.146281     -0.055159
C      -0.241833     -0.055036      0.597252
C       0.686429      1.035338      0.334266
N       1.334107      0.625316     -0.705689
N       0.977664     -0.687846     -0.997362
N       0.501059     -1.173639      0.248906
H      -0.535935     -0.364911     -1.149178
H      -1.913155      0.725181     -0.086055
H       0.727526      2.044235      0.711854
H      -0.081980     -1.985687      0.087995
