11
Extracted from Q-Chem output
O      -0.690722      2.322509     -0.145457
C      -0.320809      1.190905     -0.066463
C      -1.148686     -0.071950     -0.220842
C      -0.136795     -1.165916     -0.026638
C       1.102120     -0.731897      0.214106
C       1.141481      0.740647      0.221397
O       2.067579      1.478820      0.403435
H      -1.949512     -0.100668      0.522295
H      -1.624900     -0.103353     -1.203888
H      -0.414268     -2.212058     -0.081444
H       1.974512     -1.347038      0.383499
