12
Extracted from Q-Chem output
O      -2.392395      0.985857     -0.538597
C      -1.713248      0.183250      0.249628
C      -0.338759      0.237214      0.378700
N       0.377353      0.957434     -0.513958
N       1.456790      0.241790     -0.596261
C       1.496232     -0.715518      0.396714
N       0.404169     -0.693399      1.073426
H      -1.767041      1.502444     -1.068893
H       0.306144     -1.447774     -1.546959
H      -2.312510     -0.492149      0.844878
H       2.190775      0.488433     -1.240918
H       2.355364     -1.350185      0.545727
