9
Extracted from Q-Chem output
O      -3.019395      0.041828     -1.248085
C      -1.945869      0.013139     -0.801268
C      -0.750943      0.023257     -0.247513
N       0.261683      0.944280     -0.511154
C       1.282569      0.455933      0.062923
N       1.094983     -0.791336      0.665704
O      -0.316636     -0.992950      0.616940
H       1.349485     -0.820359      1.648186
H       2.267219      0.904045      0.061038
