12
Extracted from Q-Chem output
C      -1.901955      0.152055     -0.702888
C      -0.617284      0.000889     -0.223224
C       0.156481      1.154307      0.052922
O       1.338143      0.972646      0.497570
C       1.547828     -0.477134      0.591273
C       0.271490     -1.040993      0.117686
H      -2.304602      1.142489     -0.860034
H       1.813961     -0.652553      1.641061
H      -2.532248     -0.695502     -0.927266
H      -0.147262      2.190030     -0.072619
H       2.438567     -0.669828     -0.019413
H       0.084130     -2.100324      0.058001
