10
Extracted from Q-Chem output
N       3.047447     -1.427681     -0.493075
C       1.980854     -1.227149     -0.121049
C       0.647120     -0.989665      0.280525
N      -0.086755     -1.047199      1.285925
C      -0.699098     -0.556353     -0.022916
C      -0.987548      0.897746     -0.130700
N      -0.071199      1.735866      0.090192
H      -1.396166     -1.242059     -0.493182
H      -2.013792      1.165924     -0.401125
H      -0.403915      2.692528      0.004800
