10
Extracted from Q-Chem output
O       1.897906      0.744078     -0.177341
C       1.374510     -0.395904      0.448233
C      -0.085613     -0.627287      0.521474
O      -0.686400      0.320883     -0.181552
C      -2.075280      0.223717     -0.357839
O      -2.651831     -0.785312     -0.528369
H       1.257196      1.066147     -0.815612
H       1.728886     -1.331623     -0.025020
H       1.753318     -0.445486      1.474718
H      -2.494940      1.236639     -0.360171
