10
Extracted from Q-Chem output
O       1.908269      0.697491     -0.241326
C       1.358012     -0.360953      0.494431
C      -0.112902     -0.539208      0.570734
O      -0.677277      0.321478     -0.251432
C      -2.075515      0.223121     -0.371924
O      -2.595769     -0.620388     -1.001983
H       1.349151      0.869679     -1.002646
H       1.698597     -1.349286      0.132942
H       1.723893     -0.296068      1.523892
H      -2.558706      1.059988      0.145834
