14
Extracted from Q-Chem output
O      -0.080770     -1.280660     -0.379801
C       0.287714      0.085344     -0.665147
C      -1.051593      0.599579     -0.120656
C      -1.414319     -0.883395     -0.013470
O       1.465047      0.211082      1.448485
C       1.554808      0.463960      0.066644
H       1.216973     -0.713675      1.541708
H       0.423040      0.237626     -1.742537
H      -1.650310      1.199198     -0.802586
H      -0.958129      1.103014      0.839674
H      -2.146680     -1.233501     -0.746506
H      -1.690408     -1.252104      0.977112
H       1.741990      1.533384     -0.057822
H       2.398561     -0.079566     -0.379109
