10
Extracted from Q-Chem output
C      -0.926907     -0.375816     -0.515768
C      -0.701176      0.744602      0.444386
N       0.340824      0.310837     -0.442283
C       1.505352     -0.280833      0.004053
O       2.129761      0.073286      0.966874
H      -0.980233     -1.378953     -0.105257
H      -1.505551     -0.210477     -1.416617
H      -1.123637      1.719850      0.236296
H      -0.580867      0.500578      1.494098
H       1.842178     -1.092919     -0.663816
