10
smiles: [C-:3]#[O+:4].[C-:5]#[O+:6].[C:1]([O:2][H:10])([H:7])([H:8])[H:9]
C       -1.50407000       0.08647900       0.37908700
O       -0.42625400       0.82966200       0.90737000
C        1.34768000       0.91699100      -1.60784600
O        0.96430900       1.83310200      -2.13306200
C        1.86466600      -1.47744000       1.01863800
O        2.68012200      -2.20535500       0.75921900
H       -2.27881400       0.80092000       0.10327900
H       -1.21978900      -0.47539500      -0.51791000
H       -1.92562600      -0.61032500       1.11250500
H        0.27128500       0.22370900       1.15848600
