10
Extracted from Q-Chem output
C      -1.499967      0.297858      0.188450
O      -0.136949      0.384638      0.521800
C       0.997924      0.245590     -0.706050
O       0.670798      0.646504     -1.742395
C       1.859383     -0.806083      0.783922
O       2.893060     -1.285348      0.712495
H      -2.066005      1.011448      0.788857
H      -1.628570      0.547207     -0.870344
H      -1.889283     -0.708899      0.364658
H       0.659655     -0.412997      1.093925
