11
Extracted from Q-Chem output
N       1.755503     -0.624429     -0.328070
C       0.538927     -0.114791     -0.246318
C      -0.132675      1.054395      0.327404
N      -1.266832      0.887317      1.024444
C      -1.731935     -0.263463      0.600048
N      -1.176529     -0.825492     -0.482738
N      -0.339393      0.117982     -1.230796
H       2.292170     -0.802247      0.501818
H       2.036025     -1.066291     -1.189390
H       0.368379      2.010239      0.242213
H      -2.544730     -0.788511      1.086732
