13
Extracted from Q-Chem output
C       1.242682      0.723328      0.217937
C       0.298873     -0.019090     -0.712202
C      -0.547328     -1.071117      0.013269
N      -1.389527     -0.469308      0.990680
C      -2.066612      0.077181      1.762802
O      -0.522079      0.859860     -1.447006
H       1.836670      1.434968     -0.354737
H       0.686395      1.272465      0.981607
H       1.920612      0.034167      0.725407
H       0.879011     -0.563246     -1.462231
H      -1.180231     -1.588963     -0.707938
H       0.091387     -1.803992      0.509629
H      -1.018846      1.405102     -0.830071
