13
Extracted from Q-Chem output
C       1.363966      0.620508      0.220436
C       0.269595      0.000223     -0.642572
C      -0.460498     -1.154844      0.093974
N      -1.565438     -0.500921      0.819394
C      -1.914184      0.570830      0.449022
O      -0.659178      0.925767     -1.071526
H       1.824437      1.448592     -0.317982
H       0.946925      1.014571      1.150721
H       2.139533     -0.107146      0.471150
H       0.719621     -0.460348     -1.533558
H      -0.920194     -1.863325     -0.596859
H       0.169666     -1.701649      0.794825
H      -1.683240      1.499097     -0.149880
