16
smiles: [C:1]([C:3](=[C:2]([H:10])[H:11])[C:4]([H:12])([H:13])[H:14])([H:7])([H:8])[H:9].[C:5](=[O:6])([H:15])[H:16]
C        1.09335200      -0.02057100       1.24151500
C        1.04309700       0.09075600      -1.23288900
C        0.62091500      -0.47492300      -0.10902900
C       -0.35816800      -1.61288400      -0.10559600
C       -1.64293700       1.69579000      -0.23608500
O       -2.10066200       1.31646500       0.80145500
H        1.58156000      -0.84126400       1.77514700
H        0.24942000       0.29958000       1.85935900
H        1.79781800       0.80741200       1.16542100
H        0.69507700      -0.24796400      -2.20206100
H        1.75056500       0.91203100      -1.22243600
H       -0.66038700      -1.88852800      -1.11576500
H        0.07458500      -2.49396100       0.37700200
H       -1.25481600      -1.34965900       0.46301700
H       -1.97485500       1.28267300      -1.20795900
H       -0.86363100       2.48066800      -0.28086500
