15
Extracted from Q-Chem output
O      -1.107812      0.827340     -0.721412
C      -1.418253     -0.243655      0.392743
C      -0.310176     -1.150865      0.372904
C       0.946671     -0.903994      1.138860
C       1.108348      0.553879      0.779442
O       1.157581      1.475038      1.574322
C       0.783636      0.775006     -0.640893
H      -1.541781      1.682014     -0.549284
H      -1.526198      0.342542      1.305788
H      -2.367459     -0.669806      0.074821
H      -0.331898     -1.946529     -0.361955
H       0.926686     -1.023857      2.223307
H       1.748090     -1.526374      0.736264
H       0.873898      1.796220     -0.996018
H       1.059872      0.006014     -1.349731
