14
Extracted from Q-Chem output
C       1.857121      0.737143     -0.353263
C       1.186263     -0.472054      0.137192
O      -0.291773     -0.022948      1.595410
C      -0.309940     -0.400515      0.204132
C      -1.140397      0.635988     -0.525170
O      -2.507754      0.513343     -0.199745
H       1.321438      1.690431     -0.336571
H       1.977752      0.447415     -1.415737
H       2.870119      0.850272      0.031747
H       0.078188     -0.759755      2.093457
H      -0.788033     -1.376405      0.074914
H      -1.058740      0.474306     -1.602264
H      -0.778493      1.644867     -0.301868
H      -2.589012      0.623574      0.750731
