15
Extracted from Q-Chem output
N       2.320681      1.101680     -0.428470
C       1.000536      0.849570     -0.140466
O       0.274975      1.713488      0.327721
N       0.571268     -0.409810     -0.431619
C      -0.842242     -0.770143     -0.421311
C      -1.486933     -0.795904      0.962465
O      -1.944113      0.453071      1.402052
H       2.670810      1.952999     -0.025601
H       2.972101      0.338434     -0.468665
H       1.174801     -0.979646     -0.995834
H      -0.898875     -1.770119     -0.854368
H      -1.416208     -0.094077     -1.063237
H      -0.774638     -1.243466      1.671373
H      -2.362061     -1.450153      0.918850
H      -1.260102      1.104076      1.179960
