15
Extracted from Q-Chem output
N       2.292145      1.321442     -0.448740
C       1.132326      0.706944     -0.167681
O       0.436989      1.223971      0.788358
N       0.695847     -0.341615     -0.814264
C      -0.610354     -0.914563     -0.467636
C      -2.105983     -0.551471      1.448715
O      -1.971700      0.530927      2.000045
H       2.593296      2.058487      0.161075
H       2.950170      0.918325     -1.087238
H       1.273594     -0.688425     -1.568386
H      -0.472981     -1.987571     -0.313240
H      -1.281866     -0.758343     -1.316593
H      -1.657978     -1.469620      1.861480
H      -2.869413     -0.718912      0.672545
H      -0.394001      0.671449      0.877383
