14
Extracted from Q-Chem output
C      -1.822009     -0.009586      0.854682
N      -0.754749     -0.097929     -0.305702
C      -0.146049     -1.412745     -0.321651
C       1.175006     -1.285307     -0.224679
C       1.520479      0.132774     -0.188974
C       0.369367      0.809102     -0.273834
O       0.042891      2.098049     -0.350796
H      -2.076732      1.059188      0.843879
H      -1.197303     -0.172854      1.745646
H      -1.308549      0.055981     -1.146483
H      -0.808695     -2.260456     -0.306316
H       1.878217     -2.100988     -0.156678
H       2.510186      0.550405     -0.089947
H       0.829166      2.640695     -0.259038
