14
Extracted from Q-Chem output
C      -1.590625      0.145636     -0.565997
C      -0.334124     -0.107057      0.250198
C      -0.223884     -1.496639      0.802526
O       0.790789     -1.994034      1.214977
C       0.948673      0.603176     -0.020536
N       1.923692      0.674292     -0.957887
C       0.333481      1.007308      1.035464
H      -2.485984      0.085388      0.058590
H      -1.705230     -0.580237     -1.375943
H      -1.557707      1.141017     -1.008690
H      -1.172147     -2.078758      0.811561
H       2.105285     -0.179728     -1.456711
H       2.755488      1.174197     -0.691520
H       0.228344      1.628490      1.903810
