14
Extracted from Q-Chem output
C      -1.795505      0.214942     -0.372624
C      -0.510818     -0.081954      0.350961
C      -0.003199     -1.415672      0.387345
O       1.135331     -1.779187      0.685462
C       1.148040      0.816320      0.165122
N       2.193143      0.448715     -0.526181
C       0.211160      1.019146      1.005674
H      -2.487889      0.785478      0.253705
H      -2.295280     -0.709657     -0.670156
H      -1.627371      0.800602     -1.282172
H      -0.731268     -2.174647      0.034616
H       2.396661     -0.549495     -0.435916
H       2.436332      0.923893     -1.378164
H      -0.053287      1.724566      1.782172
