16
Extracted from Q-Chem output
C       1.329698     -1.017885      0.060042
C       0.330421      0.114973      0.192236
C       0.972050      1.427291     -0.197739
N      -1.045752     -0.104475     -0.434417
C      -1.411893     -1.029935      0.671785
C      -0.668107      0.130293      1.428285
O      -1.593603      0.983213      0.285385
H       2.134215     -0.822631      0.770641
H       1.772494     -1.037443     -0.938815
H       0.937633     -2.006590      0.283582
H       1.428226      1.372339     -1.190327
H       1.765451      1.631971      0.522312
H       0.263631      2.248789     -0.162469
H      -1.318808     -0.142707     -1.428905
H      -2.490191     -1.068078      0.800377
H      -0.959850     -2.017897      0.622481
