16
Extracted from Q-Chem output
C       1.318647     -1.003599      0.060116
C       0.322652      0.131402      0.199411
C       0.964872      1.445797     -0.184153
N      -1.027152     -0.129126     -0.512492
C      -1.444237     -1.018900      0.629528
C      -0.735339      0.159806      1.372154
O      -1.539144      1.010426      0.536542
H       2.225646     -0.729957      0.599242
H       1.595611     -1.151810     -0.988173
H       0.971864     -1.950748      0.466904
H       1.455944      1.378734     -1.159294
H       1.730595      1.674879      0.558544
H       0.248510      2.261751     -0.195855
H      -1.187874     -0.298465     -1.529641
H      -2.523672     -1.036651      0.755323
H      -1.022768     -2.022512      0.570290
