15
Extracted from Q-Chem output
C       1.231219     -0.792389      0.001902
C       0.376270      0.307308      0.635178
C       0.423340      1.605820     -0.212767
C      -1.088644      0.133079      0.781812
C      -1.701283     -0.785513     -0.185436
H       0.979854     -0.967159     -1.045880
H       1.122458     -1.738367      0.536917
H       2.286408     -0.513096      0.040272
H       0.794871      0.570246      1.611553
H       1.467364      1.896399     -0.336860
H      -0.002193      1.446718     -1.206289
H      -0.113377      2.422700      0.268205
H      -2.760193     -0.591429     -0.355563
H      -1.179218     -0.996629     -1.127135
H      -1.667108     -1.716953      0.411601
