15
Extracted from Q-Chem output
C       1.329491     -0.944625      0.020831
C       0.624487      0.235303      0.663449
C       0.286142      1.422036     -0.230827
C      -0.852458      0.342119      0.780051
C      -1.633739     -0.516886     -0.185340
H       0.895660     -1.226109     -0.938568
H       1.281450     -1.816821      0.676434
H       2.384282     -0.718137     -0.146754
H       1.144634      0.551182      1.566721
H       0.720365      2.367622      0.078681
H       0.336498      1.217675     -1.295714
H      -0.839125      1.626045      0.092730
H      -2.632982     -0.117405     -0.360233
H      -1.174570     -0.757559     -1.152057
H      -1.766615     -1.464125      0.349173
