12
Extracted from Q-Chem output
C      -0.928661      0.411886      0.554342
C      -0.455854     -0.856992     -0.189291
O      -0.363447     -0.048700     -1.393315
C      -0.097863      0.999898     -0.559096
C       1.732065      0.062707      0.212943
C       0.998801     -1.025684      0.248852
H      -1.988546      0.613845      0.385484
H      -0.642760      0.549524      1.591960
H      -1.072993     -1.744167     -0.308703
H      -0.094310      2.003384     -0.979656
H       1.456982      1.093667     -0.176585
H       1.377972     -1.983204      0.580153
