12
Extracted from Q-Chem output
N       1.901924     -0.188046     -0.112237
C       1.120135      0.601544      0.652849
O       1.528434      1.531925      1.313813
C      -0.357621      0.225982      0.669148
C      -1.791726     -0.475722     -1.017261
N      -0.724378     -0.689296     -0.388066
H       2.888477     -0.007297     -0.147232
H       1.489476     -0.938431     -0.637935
H      -0.935945      1.156517      0.670560
H      -2.454909      0.370758     -0.803823
H      -2.084613     -1.156929     -1.813454
H      -0.525662     -0.271898      1.629008
