12
Extracted from Q-Chem output
N       1.687962     -0.086681     -0.171931
C       0.792035      0.736293      0.407519
O       1.005022      1.874697      0.757314
C      -0.566560      0.100474      0.627370
C      -1.258470     -0.337959     -0.750643
N      -0.887414     -1.455205     -0.103632
H       2.607249      0.256555     -0.381266
H       1.401914     -1.020760     -0.422249
H      -1.295744      0.757546      1.099047
H      -0.654169      0.063384     -1.577617
H      -2.313150     -0.030394     -0.801244
H      -0.481393     -0.760225      1.330467
