12
Extracted from Q-Chem output
O       0.301527      2.127301     -0.576968
C       0.078135      0.876762     -0.217853
N       1.012203     -0.017242     -0.418490
C       0.506922     -1.374340     -0.111815
C      -0.900080     -1.182276      0.478864
O      -0.724484     -0.259580      1.582440
C      -1.124355      0.312211      0.349220
H       1.980713      0.256558     -0.503797
H       1.172629     -1.869788      0.597479
H       0.468003     -1.947514     -1.037589
H      -0.412154      2.687391     -0.256907
H      -2.080657      0.818444      0.276105
