12
Extracted from Q-Chem output
O       0.034973      1.593445     -0.827392
C       0.317086      0.912543      0.234901
N       1.398968      0.001792      0.303974
C       0.544604     -1.039631     -0.311011
C      -0.914166     -0.452492     -0.082213
O      -1.173923     -0.651826      1.327515
C      -0.870589      0.652962      0.996393
H       2.141822      0.300850     -0.312129
H       0.625893     -1.995002      0.201509
H       0.717094     -1.147392     -1.380990
H      -0.936468      0.761200     -0.999774
H      -1.670725      1.381549      0.976850
