12
smiles: [C-:6]#[O+:7].[N:1]([C:2](=[C:3]([H:10])[H:11])[C:4](=[O:5])[H:12])([H:8])[H:9]
N        0.18286500       0.99136800       0.68465800
C       -0.80866700       0.20373000       0.10844400
C       -1.96612600       0.63254400      -0.39242400
C       -0.52159600      -1.26158500       0.16730900
O       -1.22812200      -2.11955500      -0.28269100
C        3.33903000      -0.37334500      -0.22849700
O        4.30339200      -0.79551000      -0.62074700
H        0.11018600       1.97858000       0.50407500
H        1.12504800       0.65369400       0.57083100
H       -2.21655200       1.68444300      -0.45085200
H       -2.68800800      -0.09311000      -0.73831100
H        0.43183100      -1.52415800       0.67529400
