12
Extracted from Q-Chem output
N       0.343809      1.267113      1.131389
C       0.074348      0.338148      0.227623
C      -1.098033      0.281267     -0.591178
C      -0.419542     -1.032665      0.322541
O       0.146225     -1.904624     -0.436732
C       1.568405     -0.740589     -0.949173
O       2.200643     -1.046959     -1.848844
H       0.101422      2.228282      0.960393
H       0.982630      1.072372      1.881536
H      -1.917464      0.958320     -0.364145
H      -1.048302     -0.114851     -1.591408
H      -0.909575     -1.315757      1.255800
