13
Extracted from Q-Chem output
C      -1.478430      0.745700     -0.591224
C      -0.769328     -0.510968     -0.193788
O       0.351389     -0.816692     -0.865879
C       1.560213     -0.314786     -0.437034
N       2.527675     -0.240653     -1.220488
C       1.484036      0.064683      1.031740
N       0.362695      0.038628      1.521527
H      -1.898279      0.652951     -1.597455
H      -2.299586      0.958064      0.095713
H      -0.795070      1.596839     -0.588992
H      -1.379717     -1.397602     -0.023625
H      -0.591720     -0.278169      1.650073
H       3.340801      0.087054     -0.709348
