10
smiles: [N:3](=[C:4]=[C:5]([H:8])[H:9])[H:7].[O:1]=[C:2]=[N:6][H:10]
O        3.17762200       0.90028000      -0.14860300
C        2.08543500       1.29001200      -0.16561500
N        0.36673800      -1.50781900       0.00236500
C       -0.73297900      -0.98535500       0.01389600
C       -1.85918700      -0.32620500       0.01234300
N        1.00237600       1.82373900      -0.18931100
H        0.37752300      -2.51857600       0.10272500
H       -2.38071100      -0.14961600      -0.91701000
H       -2.27510000       0.03843800       0.94016900
H        0.11859100       1.34973500      -0.16667000
