13
Extracted from Q-Chem output
C      -1.084387      0.876051      0.233017
C      -1.125789     -0.552455     -0.282762
C      -0.241699      0.529603     -0.935484
N       0.947399     -0.269896     -0.530709
C       1.736108      0.014938      0.597337
C       0.162578     -1.239623     -0.008605
H      -0.645584      1.098773      1.195375
H      -1.958792      1.470158     -0.005683
H      -2.041744     -1.011010     -0.628085
H      -0.319318      0.991192     -1.911016
H       1.273279      0.187203      1.557325
H       2.810383      0.064355      0.485800
H       0.479155     -2.223077      0.294920
