14
Extracted from Q-Chem output
C      -2.020266     -0.504698     -0.047918
C      -0.622988     -0.386511     -0.011929
N       0.163068     -0.747624      1.136549
C       0.804092      0.522822      0.935396
C       1.552228      0.497559     -0.355672
C       0.321632      0.026573     -1.150774
O       0.049219      0.150264     -2.306618
H      -1.057290      0.691406      0.351855
H      -2.541284     -0.980200      0.768847
H      -2.560635     -0.023377     -0.850195
H       0.754670     -1.555779      0.958799
H       0.910228      1.214110      1.759615
H       2.378964     -0.224514     -0.408433
H       1.903510      1.460512     -0.726396
