12
Extracted from Q-Chem output
C       1.588276      0.356332     -1.504300
C       0.708228      0.327372     -0.288387
O       0.941271      0.869327      0.751670
C      -1.515515     -0.234547      1.625372
C      -1.404361     -0.634821      0.370455
O      -0.399154     -0.410674     -0.544596
H       1.041437      0.778632     -2.347730
H       1.876885     -0.659878     -1.774441
H       2.471432      0.953091     -1.295156
H      -0.780906      0.365625      2.134284
H      -2.406933     -0.539952      2.157141
H      -2.164295     -1.237905     -0.109872
