12
Extracted from Q-Chem output
C       1.433550      0.051187     -0.807725
C       0.292674      0.820421     -0.225432
O       0.209301      1.960245      0.034686
C      -0.692139     -0.526329      1.033182
C      -1.617725     -0.246018      0.032758
O      -1.167719      0.197648     -1.069075
H       1.161654     -0.973888     -1.036311
H       2.262529      0.078917     -0.100419
H       1.728578      0.565113     -1.723779
H       0.104709     -1.222734      0.813070
H      -1.017612     -0.531292      2.067559
H      -2.705447     -0.260285      0.164858
