19
smiles: [C:1]([C:2]([C:3]([H:12])([H:13])[H:14])=[C:4]([C:5]([C:6](=[O:7])[H:18])([H:16])[H:17])[H:15])([H:8])([H:9])[H:10].[H:11][H:19]
C        1.87136300       1.16251100      -0.63949300
C        0.73318700       0.18934700      -0.53350100
C        1.10695000      -1.17506600      -0.03224700
C       -0.50461000       0.54184100      -0.87613900
C       -1.71869500      -0.35298300      -0.81209300
C       -2.23765200      -0.42955200       0.60209400
O       -2.32460200      -1.44214300       1.24110900
H        1.53957900       2.13734400      -0.99657100
H        2.35621900       1.29627100       0.33158700
H        2.63632000       0.78725500      -1.32542000
H        0.22953500       0.87418500       2.74586500
H        1.58196700      -1.09692300       0.94946200
H        1.83962800      -1.63724600      -0.70010000
H        0.25619800      -1.84626600       0.06662700
H       -0.67173100       1.56045500      -1.21322400
H       -2.51176100       0.06565600      -1.43840200
H       -1.51449900      -1.36572500      -1.16030200
H       -2.52356500       0.54502500       1.05112000
H       -0.12781700       0.22123500       2.76494100
