14
Extracted from Q-Chem output
C       2.733472     -0.383913      0.717439
C       1.510986     -0.213327      0.301972
C       0.291613     -0.045636     -0.102113
C      -0.557495      1.175454     -0.417691
C      -1.808141      0.263361     -0.339124
C      -0.886616     -0.982797     -0.316375
H       3.546778     -0.544734      0.018240
H       2.975779     -0.372013      1.774658
H      -0.497457      2.002371      0.289482
H      -0.372144      1.559239     -1.423017
H      -2.353646      0.389027      0.595760
H      -2.512146      0.332497     -1.167216
H      -0.838025     -1.495869     -1.278934
H      -1.066930     -1.720786      0.464914
