14
Extracted from Q-Chem output
C       2.908081     -0.381260     -0.107812
C       1.754431     -0.219531      0.174008
C       0.348761     -0.025441      0.483787
C      -0.417638      1.136250     -0.199100
C      -1.641819      0.205281     -0.310912
C      -0.694223     -0.996798     -0.125713
H       3.933681     -0.526075     -0.351929
H       0.219770      0.029035      1.567384
H      -0.517639      2.063407      0.364000
H       0.012797      1.357059     -1.176234
H      -2.316572      0.321960      0.538469
H      -2.225227      0.248917     -1.229515
H      -0.341521     -1.384873     -1.081715
H      -1.022881     -1.827933      0.497118
