9
Extracted from Q-Chem output
O       2.749494     -0.023738      0.427719
C       0.698573     -0.336734     -0.410510
N       1.787707      0.196692     -0.552116
N      -1.826385      0.880580     -0.052282
C      -1.569632     -0.345326      0.060316
N      -0.378313     -0.911104     -0.432044
H       3.481197      0.518051      0.121753
H      -2.745781      1.088954      0.326881
H      -2.232576     -1.098282      0.488036
