14
Extracted from Q-Chem output
C       2.493881      0.085186      0.659297
N       1.280930      0.851635      0.449080
C       0.248366      0.271230      0.085327
O       0.030278     -1.066495     -0.217294
C      -1.296399     -0.825996     -0.672851
C      -2.149879      0.401604      0.765060
C      -1.157382      0.712030     -0.224229
H       3.334463      0.631036      0.230622
H       2.673419     -0.005317      1.732412
H       2.461427     -0.918509      0.226712
H      -1.405416     -0.882429     -1.755834
H      -2.027565     -1.467029     -0.171618
H      -3.123521      0.670131      0.312180
H      -1.296836      1.456501     -1.008189
