13
Extracted from Q-Chem output
O       1.528716      1.882255      0.923200
C       0.946189      0.924408      0.438202
C       1.551749     -0.350240      0.251040
O       0.900335     -1.327516     -0.416515
C      -0.354728     -1.356998     -0.616890
C      -1.186344     -0.305565     -0.009855
C      -0.479878      1.044480     -0.092116
H       2.605751     -0.546045      0.352053
H      -0.423201      1.403050     -1.125394
H      -0.703124     -2.223118     -1.162253
H      -1.282326     -0.572457      1.058978
H      -2.187895     -0.300205     -0.437903
H      -1.004839      1.801121      0.488057
