16
Extracted from Q-Chem output
C       2.658490     -0.092529      0.048082
C       1.212660      0.265246      0.056346
C       0.093658     -0.731995     -0.077988
C      -1.107250      0.161914     -0.004500
C      -2.520316     -0.303585     -0.085587
C      -0.633388      1.402644      0.143452
N       0.783890      1.465214      0.180444
H       3.261476      0.805142      0.169590
H       2.891063     -0.791991      0.854906
H       2.933349     -0.581306     -0.890075
H       0.156314     -1.285118     -1.021308
H      -3.214540      0.530652      0.017876
H      -2.745867     -1.029447      0.700518
H      -2.723285     -0.795125     -1.041191
H      -1.200857      2.319500      0.232120
H       0.120748     -1.477400      0.724182
