8
Extracted from Q-Chem output
N      -0.455149      0.615223      0.076912
C      -0.788028     -0.678637     -0.015651
N       0.257957     -1.458206     -0.009332
C       1.397192     -0.659776      0.121130
N       0.910608      0.586586      0.202919
H      -1.020765      1.418328      0.286892
H      -1.821601     -0.986659     -0.094697
H       1.430170      1.445628      0.233577
