8
Extracted from Q-Chem output
N      -0.724496      0.657071      0.102772
C      -0.727755     -0.678110     -0.008869
N       0.501746     -1.132464      0.031998
C       1.233533      0.001560      0.173479
N       0.533036      1.111769      0.221310
H      -1.497724      1.297870      0.107808
H      -1.628267     -1.263855     -0.114270
H       2.309928      0.006158      0.243444
