8
Extracted from Q-Chem output
N      -0.550289      0.656789      0.231487
C      -0.735586     -0.637094     -0.060718
N       0.385875     -1.300778     -0.077977
C       1.364236     -0.407128      0.335901
N       0.766825      0.827845      0.545378
H      -1.222845      1.392884      0.357778
H      -1.719367     -1.045699     -0.248985
H       1.635531      0.745722     -0.290674
