14
smiles: [C-:1]1([H:8])[N:2]([H:9])[C@:3]1([C+:4]1[C:5]([H:12])([H:13])[N:6]1[H:14])[H:10].[H:7][H:11]
C        1.95342500      -0.34784300       0.04427900
N        1.59367800      -1.37317400       0.88416100
C        0.60778300      -1.15907800      -0.21209300
C       -0.50475800      -0.45107800       0.11604000
C       -1.84454100       0.01303800      -0.14047500
N       -1.03645800       0.44540500       1.03485800
H        0.61887500       1.63803400      -1.62383400
H        1.88243600       0.65546200       0.49577600
H        1.24157800      -1.12756900       1.81338400
H        0.58807100      -1.88204400      -1.01196900
H        0.24195300       2.27908600      -1.66085400
H       -2.70439400      -0.59863500       0.10833700
H       -1.99476800       0.72094300      -0.95021100
H       -0.69094100       1.39498100       0.96199400
