14
Extracted from Q-Chem output
C       1.716832     -0.010043     -0.116981
N       1.787531     -1.270474      0.444673
C       0.566104     -0.917286     -0.350976
C      -0.472678      0.020211     -0.096856
C      -1.928210      0.117955     -0.076675
N      -1.088432      0.491136      1.085189
H       1.213017      0.946324     -1.267681
H       1.606103      0.812520      0.593155
H       1.737170     -1.292472      1.459285
H       0.531948     -1.452303     -1.290415
H       0.242080      1.079701     -1.096499
H      -2.530555     -0.770630      0.075128
H      -2.396471      0.908199     -0.652400
H      -1.022059      1.495673      1.188422
