15
Extracted from Q-Chem output
C      -1.551205     -1.024254     -0.057094
C      -0.899350      0.303402     -0.344567
C      -0.951827      1.422993      0.601550
N       0.292260      0.677744      0.411286
C       2.527748     -0.033275     -0.637360
C       2.050543     -0.793331      0.370604
N       1.354270     -1.188554      1.232979
H      -1.558537     -1.218233      1.015447
H      -1.005720     -1.837152     -0.538204
H      -2.578330     -1.025915     -0.427740
H      -0.828706      0.557776     -1.400041
H      -0.940311      2.451962      0.255381
H      -1.419035      1.276848      1.571728
H       2.357608     -0.328725     -1.663499
H       3.254845      0.738117     -0.426661
