19
smiles: [C:1]([C:2]([C:3]([C:4]1=[C:5]([H:14])[C:6]1([H:16])[H:17])([H:12])[H:13])=[C:7]([H:18])[H:19])([H:8])([H:9])[H:10].[H:11][H:15]
C       -1.69321900      -0.72531000      -0.13000000
C       -1.02710300       0.50476700       0.41083600
C       -0.13866200       1.25191300      -0.55759800
C        0.99074300       0.42278500      -1.03642200
C        1.68754500      -0.11563500      -1.97386100
C        2.15493700      -0.40289900      -0.57487800
C       -1.19633300       0.92285200       1.65768900
H       -0.94931100      -1.45463200      -0.46155000
H       -2.30692900      -0.48135500      -1.00199800
H       -2.32928600      -1.19698900       0.61831500
H        0.37049700      -2.41471900       2.29359300
H       -0.72586400       1.58454300      -1.41950800
H        0.26346800       2.14310400      -0.06901800
H        1.87241000      -0.28654700      -3.01963700
H        0.25482700      -1.69875100       2.12481300
H        3.04770200       0.09011100      -0.18968700
H        1.97867200      -1.38629800      -0.13765100
H       -0.70165900       1.81197900       2.03123100
H       -1.83657800       0.38758100       2.34931800
