15
Extracted from Q-Chem output
C      -1.642127     -0.632305     -1.128446
C      -0.416542     -0.282737     -0.359655
C      -0.602897      0.010017      1.086904
C       0.791786     -0.178262     -1.010182
C       1.872602      0.483344     -0.455993
C       2.234040      0.846799      0.838074
O       1.952709      1.882650      1.434241
H      -2.367225      0.183807     -1.055787
H      -1.435783     -0.834182     -2.177646
H      -2.117230     -1.505502     -0.672295
H       0.807628     -0.435083     -2.067214
H      -1.572568     -0.340935      1.437189
H       0.190402     -0.441486      1.683408
H      -0.528348      1.086271      1.268015
H       2.951286      0.102389      1.267511
