19
smiles: [C:1]([C:2]([C@@:3]([O:4][H:14])([C:5](=[C:6]([H:17])[H:18])[H:15])[H:13])([H:11])[H:12])([H:8])([H:9])[H:10].[O:7]([H:16])[H:19]
C        2.42083300      -0.08013300       0.67619300
C        1.26442200       0.13329200      -0.28924600
C        0.13636600      -0.88560300      -0.11106200
O       -0.38598400      -0.86283000       1.20144600
C       -0.92286000      -0.70568100      -1.16542500
C       -2.22328000      -0.61767400      -0.93786900
O       -1.60734800       1.79829700       1.05559600
H        3.19556600       0.67474500       0.53285000
H        2.08077300      -0.02918800       1.71093500
H        2.87830300      -1.06135500       0.52769500
H        1.62179700       0.07989500      -1.32214900
H        0.84278700       1.13812500      -0.16456800
H        0.56181600      -1.89046500      -0.22108400
H       -0.78310800       0.00018300       1.34849900
H       -0.55114800      -0.63843600      -2.18521500
H       -1.82908000       1.58060400       0.14934400
H       -2.63154500      -0.70608700       0.06236400
H       -2.92647200      -0.47319500      -1.74839900
H       -1.18906100       2.65929000       1.01606700
