12
Extracted from Q-Chem output
C      -1.246992     -0.031146     -0.383622
C       0.109641      0.006020     -0.652936
C       0.854602      1.264339     -0.498804
O       1.962479      1.465753     -0.925073
C       0.863958     -0.942717      1.170036
O       1.871337     -1.353895      1.483544
H      -1.879901     -0.753507     -0.885747
H      -1.351722     -0.694803      0.952597
H      -1.747094      0.883055     -0.076449
H       0.572245     -0.738837     -1.292036
H       0.306633      2.056473      0.057267
H      -0.700113     -0.979453      1.485677
