21
smiles: [C:1]([C:2]([C:3]([C:4]([C:5]([C:6](=[O:7])[H:19])([H:17])[H:20])([H:15])[H:16])([H:13])[H:14])([H:11])[H:12])([H:8])([H:9])[H:10].[H:18][H:21]
C       -2.80034500      -0.41243400       0.84322900
C       -1.92699200      -0.04801200      -0.34999400
C       -0.44402300       0.00446300      -0.00434900
C        0.43832600       0.36255900      -1.19501100
C        1.92361100       0.43290000      -0.83903000
C        2.46767300      -0.90821100      -0.43211900
O        3.10626500      -1.12483100       0.56034600
H       -3.85721000      -0.43947800       0.57221400
H       -2.68193100       0.31256800       1.65208200
H       -2.53271200      -1.39483400       1.23953900
H       -2.08481000      -0.77383300      -1.15489300
H       -2.23880400       0.92230100      -0.75105700
H       -0.28053800       0.73399700       0.79697300
H       -0.13398500      -0.96367800       0.40685200
H        0.12484600       1.32548300      -1.60742400
H        0.28950100      -0.37221600      -1.99475400
H        2.11613600       1.14739600      -0.03644600
H        1.58962800       0.59003600       3.06320300
H        2.23720700      -1.73600000      -1.14047900
H        2.49677500       0.75165300      -1.71753700
H        2.01522400       0.17454500       2.61531000
