21
Extracted from Q-Chem output
C      -3.185732     -0.092814      0.702820
C      -2.089843     -0.062355     -0.353570
C      -0.699067      0.104637      0.246738
C       0.395659      0.118344     -0.830192
C       1.743068      0.309847     -0.231666
C       2.870334     -0.575071     -0.458571
O       3.862264     -0.482656      0.370663
H      -4.170137     -0.214768      0.248319
H      -3.199854      0.833034      1.282680
H      -3.036225     -0.918541      1.402132
H      -2.118695     -0.986679     -0.939728
H      -2.280625      0.752569     -1.059522
H      -0.653370      1.033515      0.824224
H      -0.495375     -0.705887      0.951848
H       0.179268      0.929985     -1.532389
H       0.371482     -0.823215     -1.385630
H       2.013049      1.304794      0.112008
H       2.025064     -0.140754      1.610447
H       2.571669     -1.565425     -0.848161
H       2.983577      0.095040     -1.410201
H       2.848782     -0.311534      1.491388
