11
Extracted from Q-Chem output
O      -0.091382      2.827012     -0.366543
C       0.402748      1.850735     -0.048455
C      -1.526101     -0.742847     -0.169654
C      -0.287118     -1.204942     -0.320227
C       0.916853     -0.613061      0.249423
C       1.099579      0.709433      0.361858
O       1.966827      1.586967      0.807014
H      -1.752881      0.099696      0.474616
H      -2.362928     -1.215895     -0.667020
H      -0.134415     -2.104541     -0.910143
H       1.729934     -1.252743      0.572326
