19
Extracted from Q-Chem output
C       2.531390      0.795891     -0.089401
C       1.652616     -0.430666     -0.111129
O       0.513608     -0.192069      0.708281
C      -0.376743     -1.204158      0.765796
C      -1.747736     -0.786263      1.006065
C      -1.897693     -0.149600     -0.377797
C      -1.264172      1.131988     -0.637647
H       2.841157      1.025675      0.930708
H       1.995881      1.656983     -0.490183
H       3.425264      0.628463     -0.692606
H       2.187573     -1.303627      0.280517
H       1.318224     -0.667326     -1.128226
H      -0.163459     -2.084618      0.166022
H      -1.874662     -0.053101      1.803478
H      -2.428861     -1.620665      1.148058
H      -1.985338     -0.838579     -1.210112
H      -0.826855      1.373517     -1.596914
H      -2.666790      0.755847     -0.594784
H      -1.280802      1.887784      0.134602
