10
Extracted from Q-Chem output
C       0.725592      0.949692     -0.002880
C       0.667902     -0.484620     -0.452835
N       0.718133     -1.484974      0.683625
N      -0.492777     -1.432885      0.944330
C      -0.832141     -0.419158     -0.128968
C      -0.579162      1.006271      0.279449
H       1.551318      1.637380      0.117861
H       1.114487     -0.826564     -1.381956
H      -1.650306     -0.702194     -0.784996
H      -1.222903      1.757470      0.716299
