10
Extracted from Q-Chem output
C       0.663915      0.822819     -0.089642
C       1.317531     -0.403583     -0.116930
N       0.694061     -1.568301     -0.021013
N      -0.618410     -1.596030      0.108621
C      -1.296985     -0.458877      0.140503
C      -0.702658      0.793914      0.044344
H       1.217363      1.749868     -0.169396
H       2.394971     -0.468112     -0.220328
H      -2.370348     -0.568487      0.249140
H      -1.299439      1.696787      0.074701
