10
Extracted from Q-Chem output
C       0.813916      0.966905      0.129941
C       1.006157     -0.402168     -0.282394
N       0.899112     -1.334837      0.714637
N      -0.370772     -1.547763      0.597555
C      -0.953010     -0.494682     -0.133729
C      -0.534884      0.897159      0.043109
H       1.480935      1.670384      0.600897
H       0.852592     -0.736521     -1.309889
H      -1.938909     -0.717403     -0.527358
H      -1.255138      1.698925      0.167232
