15
Extracted from Q-Chem output
O      -0.397890     -1.453389     -1.543470
C      -0.501453     -0.415958     -0.721083
C       1.508945     -0.718372      0.450903
C       1.327256      0.376413      1.236695
O       0.319702      0.506842      2.041184
C      -1.373314      0.035408      0.210607
C      -0.820144      1.010543     -0.835963
H       0.238781     -1.249975     -2.234759
H       1.024521     -1.654327      0.692467
H       2.343147     -0.749056     -0.239428
H       1.961424      1.258912      1.100659
H      -0.594903      0.255278      1.376408
H      -2.386165     -0.276168      0.416829
H      -1.442727      1.320150     -1.673746
H      -0.103247      1.756699     -0.503297
