11
Extracted from Q-Chem output
O      -0.581282      1.623750      1.124815
C      -0.103333      0.640507      0.380831
C      -0.892582     -0.555973      0.019739
C       0.114903     -1.312863     -0.806362
C       1.313077     -0.699803     -0.936931
N       1.071748      0.544687     -0.139964
H      -1.796853     -0.249776     -0.516796
H      -1.223434     -1.065272      0.931059
H      -0.124700     -2.268892     -1.249737
H       0.070451      2.319518      1.258462
H       1.797434      1.237676     -0.036554
