11
Extracted from Q-Chem output
O       0.013331      1.069516      1.370897
C      -0.299843      0.774369      0.151161
C      -1.134785     -0.423459     -0.313591
C       0.176519     -1.162885     -0.217568
C       1.162105     -0.217216     -0.189151
N       0.639924      1.062505     -0.820216
H      -1.589886     -0.288260     -1.292731
H      -1.860129     -0.755541      0.424094
H       0.301250     -2.126990      0.257514
H       1.098856      0.396717      1.149891
H       1.240523      1.811241     -0.494214
