12
smiles: [C:1]([C:2](=[C:3]([H:11])[H:12])[H:10])([H:7])([H:8])[H:9].[O:4]=[C:5]=[O:6]
C        1.60716000      -0.02703000       0.15626100
C        0.30466700       0.21518800       0.85006000
C       -0.54760400       1.18358100       0.55269700
O       -2.62613200      -0.44802900      -1.58652900
C       -1.85521600      -1.27681800      -1.35016700
O       -1.08428600      -2.10556400      -1.11378000
H        2.44143400       0.03079200       0.86017400
H        1.63309200      -1.02655400      -0.28553500
H        1.77754000       0.70250000      -0.63663400
H        0.05779800      -0.47003300       1.65788800
H       -0.34534600       1.89174000      -0.24456300
H       -1.47842800       1.30461000       1.09321500
