19
Extracted from Q-Chem output
C       3.082646      0.816106     -0.463967
C       2.797350     -0.556866     -0.315046
O       1.018797     -0.380297     -0.815765
C       0.033166     -0.564696      0.172685
C      -1.300299     -0.037405     -0.320427
O      -2.252751     -0.251262      0.689280
C      -3.528763      0.213282      0.340402
H       1.699939      0.655704     -0.763829
H       3.628242      1.138129     -1.342273
H       3.220219      1.411942      0.430220
H       2.647100     -0.986491      0.670333
H       3.059189     -1.271711     -1.084958
H      -0.068066     -1.630964      0.396869
H       0.302000     -0.046713      1.105686
H      -1.213469      1.034128     -0.553869
H      -1.585050     -0.557913     -1.245586
H      -3.907641     -0.288336     -0.559822
H      -3.525730      1.296122      0.157910
H      -4.197217     -0.002902      1.172834
