15
Extracted from Q-Chem output
C      -0.866887     -1.558356      0.435897
C      -0.352653     -0.321811     -0.245711
O      -0.463693     -0.345007     -1.650277
C      -0.614994      1.067169      0.330642
O      -0.974496      2.101261     -0.521724
C       0.741820      0.496549      0.311833
C       2.032677      0.632427      0.514643
H      -1.895757     -1.754077      0.129420
H      -0.838184     -1.440203      1.519898
H      -0.256027     -2.425744      0.174888
H       0.371423     -0.630566     -2.024827
H       2.440695      1.541233      0.942884
H      -1.140981      1.115877      1.279217
H      -0.919274      1.747370     -1.417748
H       2.735564     -0.153921      0.258996
