12
Extracted from Q-Chem output
O       1.556523     -0.110774      1.038187
C       2.175152      0.213628     -0.048353
C       0.639079     -0.650124     -0.321385
C      -0.684291     -0.481379      0.385409
C      -1.488128      0.712485      0.174261
O      -1.789369     -0.501004     -0.499633
H       2.119053      1.330950     -0.200534
H       0.939326     -1.672839     -0.500290
H       0.576676     -0.055110     -1.246049
H      -0.812127     -1.054367      1.298100
H      -2.202479      1.012007      0.933959
H      -1.106028      1.511805     -0.455574
