10
Extracted from Q-Chem output
O       2.115442      0.748218     -0.309042
C       1.232222     -0.102850      0.003992
N       1.080853     -1.299385      0.370533
C      -1.664126     -0.328617     -0.342227
C      -1.612705      0.593370      0.442827
N       0.215098      0.888003     -0.172857
H       1.984363     -1.750319      0.469592
H      -1.636394     -1.163765     -1.005739
H      -1.794643      1.320923      1.201226
H       0.089380      1.060341     -1.168892
