14
smiles: [C:1]([C:2](=[O:3])[H:14])([H:7])([H:8])[H:9].[C:4]([C:5](=[O:6])[H:12])([H:10])([H:11])[H:13]
C        2.60750000       1.03716600      -1.26577600
C        1.45067000       0.36560700      -0.58942900
O        1.55255900      -0.46686400       0.26867300
C       -1.80699400      -1.17012900       0.79516100
C       -2.50952300      -0.31229000      -0.21337300
O       -1.95984700       0.44239100      -0.96703500
H        2.55027200       0.86207600      -2.34334000
H        2.53804200       2.11785200      -1.11583300
H        3.55185200       0.66388000      -0.87440500
H       -0.73015200      -1.02058700       0.74479800
H       -2.17372600      -0.92836400       1.79621700
H       -3.61585200      -0.41144400      -0.23243400
H       -2.05036200      -2.22002800       0.61221100
H        0.44604500       0.68989100      -0.93523000
