14
Extracted from Q-Chem output
C      -1.929241      0.527504     -0.641655
C      -0.516402      0.333644     -0.217280
C       0.459461      1.227007     -0.177727
N       2.401089     -1.366009      0.964669
C       1.496471     -0.607865      0.544109
O       1.671502      0.729328      0.265324
C       0.059495     -0.971295      0.256257
H      -2.178903     -0.126545     -1.481327
H      -2.114559      1.557636     -0.946652
H      -2.620019      0.284680      0.170096
H       0.468502      2.275684     -0.434154
H       3.279768     -0.865348      1.071943
H      -0.422282     -1.355469      1.158786
H       0.010035     -1.763538     -0.494814
