14
Extracted from Q-Chem output
C      -1.978328      0.566351     -0.425485
C      -0.559643      0.206635     -0.168146
C       0.490187      0.947565      0.033947
N       1.845535     -0.407596      1.446497
C       1.520999     -0.569101      0.179284
O       2.134006     -0.129883     -0.855786
C       0.090175     -1.152544     -0.066122
H      -2.297157      0.150983     -1.383807
H      -2.126123      1.645295     -0.446813
H      -2.617491      0.140394      0.350506
H       1.034241      1.870256      0.102951
H       2.758452      0.049291      1.477150
H      -0.270718     -1.720937      0.789122
H       0.040777     -1.717296     -0.995725
