13
Extracted from Q-Chem output
C      -2.021080      0.050811     -0.198593
C      -0.651388      0.083832      0.430840
C       0.429171     -0.412694     -0.416901
C       1.679617     -0.408613      0.041575
O       3.074912     -0.242235     -0.826652
N       2.747190     -0.334527      0.703002
N      -0.395546      0.500987      1.607806
H      -2.773540      0.444571      0.483964
H      -2.290523     -0.974294     -0.463276
H      -2.034589      0.639660     -1.118448
H       0.248591     -0.840673     -1.392429
H       3.166826      0.710042     -0.985713
H      -1.239687      0.831298      2.066339
