14
Extracted from Q-Chem output
C       2.066743      0.360281     -0.458096
N       1.390383     -0.817115      0.306275
C       0.726416     -0.166337     -0.825706
C      -0.569431      0.492833     -0.439471
C      -1.706255     -0.238421      0.155983
N      -0.830917      0.585973      0.989758
H       1.794272     -1.731250      0.185711
H       1.913583      1.211364      0.219934
H       0.910933     -0.646353      1.185910
H       0.645132     -0.791930     -1.714005
H      -0.812381      1.357316     -1.049778
H      -1.624962     -1.305873      0.331115
H      -2.712075      0.112879     -0.044616
H      -1.262682      1.463618      1.243494
