11
Extracted from Q-Chem output
N      -1.856593     -0.128189     -0.117712
C      -0.578048     -0.231976      0.167496
C       0.548766     -0.996583      0.346531
C       1.598619     -0.144412     -0.122449
N       1.275021      1.071536     -0.466314
N      -0.121922      1.112954     -0.149625
H      -2.509247     -0.875403      0.051868
H      -1.294881      1.047591     -0.649449
H       0.615055     -2.053907      0.533603
H       2.632814     -0.444481     -0.248554
H      -0.228542      1.715457      0.664990
