14
Extracted from Q-Chem output
C      -1.863013     -1.032590     -0.426016
C      -0.622360     -0.719002      0.362235
C       0.309211      0.338692     -0.266035
N      -0.227288      1.624912      0.173269
C       1.718875      0.106547      0.064304
C       2.875686     -0.053750      0.326468
O      -0.377272     -1.202960      1.432985
H      -2.327684     -0.108021     -0.772162
H      -1.586029     -1.616056     -1.308433
H      -2.557732     -1.607229      0.181842
H       0.252006      2.384015     -0.291629
H      -0.071387      1.731564      1.168303
H       0.194649      0.289267     -1.352597
H       3.901264     -0.206472      0.567245
