12
smiles: [C:5](=[O:6])([H:11])[H:12].[O:1]=[C:2]([C:4](=[C:3]([H:8])[H:9])[H:10])[H:7]
O        0.39590000       1.42589900       0.62408200
C        1.14242600       0.63029400       0.11886200
C        1.60361700      -1.49161900      -0.98291100
C        0.71744400      -0.66581300      -0.44207300
C       -2.37816100       0.94486900       0.83817300
O       -2.64598600      -0.13063400       0.38944400
H        2.23184900       0.83411900       0.04491500
H        1.31948000      -2.44883000      -1.40165900
H        2.65662500      -1.22956300      -1.02293300
H       -0.34063100      -0.89770600      -0.38663700
H       -2.12810600       1.08821200       1.90699800
H       -2.36602400       1.85590600       0.20962800
