15
Extracted from Q-Chem output
N       2.096715      0.389567     -1.078866
C       1.559667     -0.460386     -0.142098
O       2.503467     -1.281694      0.379892
C       0.277892     -0.450800      0.245818
N      -0.633947      0.421075     -0.405888
C      -1.612650      1.111726      0.414102
C      -2.020610      0.005461     -0.482373
H       2.825871     -0.019944     -1.639530
H       1.385139      0.874541     -1.603343
H       2.080328     -1.891718      0.987767
H      -0.063391     -1.079279      1.067996
H      -1.597365      0.910873      1.481062
H      -1.817590      2.141194      0.143527
H      -2.283422     -0.941860     -0.020730
H      -2.528753      0.215100     -1.416672
