15
Extracted from Q-Chem output
C      -1.366706     -0.321234     -0.606926
O      -1.059072     -1.544290      0.195167
C       0.164955     -1.608215      0.691001
C       1.201901     -0.746390      0.560192
C       1.221344      0.457450     -0.228420
C       0.325960      1.605117     -0.125280
C      -0.954389      0.888159      0.094010
H      -0.893180     -0.431088     -1.587411
H      -2.449155     -0.413247     -0.706495
H       0.336596     -2.567822      1.167961
H       2.166354     -1.162840      0.842595
H       1.833580      0.389737     -1.132220
H       0.516300      2.241438      0.741292
H       0.389795      2.224589     -1.023151
H      -1.401556      0.996903      1.079748
