16
smiles: [C:5]([C:6]([O:7][H:16])([H:14])[H:15])([H:10])([H:12])[H:13].[N:1]([C:2]([O-:3])=[C+:4][H:11])([H:8])[H:9]
N        1.67180200       0.32517000       1.20850500
C        1.77369500      -0.99540800       1.15426700
O        2.65527400      -1.72991100       1.65669900
C        1.20380400      -2.11121800       0.54653000
C       -1.48629200      -0.37018400      -0.76066000
C       -1.34766400       1.07271500      -1.18681800
O       -0.40437300       1.69488500      -0.33109500
H        2.40709900       0.85895100       1.63824000
H        0.94071400       0.79941100       0.71258800
H       -0.52425100      -0.88032000      -0.82718900
H        0.50499400      -2.59996400       1.23377900
H       -2.20100000      -0.89245200      -1.39919300
H       -1.83414200      -0.43066800       0.27161300
H       -1.01479000       1.12552200      -2.23168500
H       -2.31977200       1.57887600      -1.12287200
H       -0.30268000       2.61028000      -0.59417200
