16
Extracted from Q-Chem output
N       1.401409      0.322678      1.390359
C       1.522486     -0.982576      1.067756
O       2.291375     -1.761995      1.623014
C       0.871979     -1.629743     -0.059169
C      -1.149830     -0.390128     -0.396835
C      -1.263315      0.928549     -1.122190
O      -0.335230      1.831459     -0.541741
H       2.065469      0.678797      2.055397
H       0.923102      0.969753      0.781368
H      -0.104471     -0.799093     -0.717584
H       0.225847     -2.436927      0.294742
H      -1.865284     -1.122988     -0.766482
H      -1.254049     -0.270669      0.678139
H      -1.055905      0.793066     -2.188938
H      -2.285467      1.313759     -1.019530
H      -0.251521      2.609569     -1.093608
