15
Extracted from Q-Chem output
O      -1.258876      0.420994     -0.828941
C      -1.423222      0.321153      0.581656
C      -0.310676     -0.690655      1.060721
N       0.425487     -1.156947     -0.080137
C       0.678476      0.812784     -1.062085
C       1.498419     -0.227628     -0.429226
H      -0.871187     -0.506601     -1.005084
H      -2.425625     -0.055090      0.789037
H      -1.325360      1.323199      1.004860
H       0.319061     -0.206767      1.823277
H      -0.797206     -1.550612      1.526124
H       0.539377      0.803377     -2.135423
H       0.501213      1.770242     -0.586979
H       2.060696      0.140510      0.440149
H       2.183373     -0.701285     -1.134465
