9
smiles: [C:5]=[N:6][H:7].[N:1](=[C:2](\[C:3]#[N:4])[H:9])\[H:8]
N       -0.17262100      -0.38972700      -0.39914600
C        0.93802300      -0.38818100       0.19781300
C        1.97401300      -1.38812600       0.00962500
N        2.78836800      -2.18213600      -0.14398800
C       -2.80499900       2.58282200       0.40084300
N       -2.09318900       1.70438800       0.13069300
H       -1.47970600       0.95356800      -0.09757700
H       -0.25955400      -1.18150300      -1.03525400
H        1.16916300       0.40072900       0.91084500
