17
Extracted from Q-Chem output
C       1.325581      0.280085     -0.949868
C       0.571890      0.557582      0.336239
O      -0.065741      1.793569      0.361934
C      -1.279455      1.916052     -0.218014
C      -0.590534     -0.525044      0.544057
C      -0.222023     -1.788429      1.026602
O       0.036898     -2.852049      0.240533
H       2.096365      1.034101     -1.111110
H       0.652248      0.285378     -1.810299
H       1.813857     -0.695386     -0.891113
H       1.252713      0.546059      1.190686
H      -1.331139      1.780038     -1.297882
H      -1.857237      2.723527      0.212758
H      -1.309107      0.027706      1.182406
H      -1.074942     -0.561980     -0.445961
H      -0.174081     -2.040500      2.077460
H      -0.052602     -2.602157     -0.684115
