13
smiles: [C-:1]1([H:7])[N:2]([H:9])[C@:3]1([C:4]1=[O+:6][C:5]1([H:12])[H:13])[H:10].[H:8][H:11]
C       -1.75906500      -0.24735200       0.12217400
N       -1.68940100       1.03068700       0.64384600
C       -0.57472000       0.74403800      -0.29329200
C        0.61417500       0.41003000       0.27055100
C        2.02248300       0.18813800       0.32570900
O        1.09738100      -0.04253600       1.43954200
H       -1.52181800      -1.03576800       0.85403700
H       -0.85257600      -1.72094300      -1.89734100
H       -1.38961800       1.12661500       1.61863900
H       -0.59873300       1.18647900      -1.27625900
H       -0.39954300      -2.13385100      -2.31997900
H        2.44688100      -0.71859900      -0.09202800
H        2.70181700       1.02067100       0.47573100
