14
Extracted from Q-Chem output
C      -1.653808     -0.318229     -0.169139
C      -1.276864      1.133527     -0.144677
C      -0.441446      0.128305      0.586626
C       0.905510     -0.227704      0.048640
C       2.457949     -0.811577      0.959858
O       1.341463     -1.500376      0.510782
H      -1.500466     -0.865397     -1.090709
H      -2.513257     -0.638843      0.403505
H      -1.876760      1.814293      0.443464
H      -0.874867      1.563852     -1.053776
H      -0.493908      0.115560      1.668168
H       1.009073     -0.151732     -1.035510
H       3.120542     -0.712990      0.056503
H       1.635812      0.528732      0.521039
