13
smiles: [C:1]([C@@:2]1([H:9])[O:3][C:4]1([H:11])[H:12])([H:6])([H:7])[H:8].[O:5]([H:10])[H:13]
C       -1.95624500       0.07931700       0.19495400
C       -0.47795800      -0.17254800       0.21719800
O        0.32728200       0.67425400      -0.58827000
C        0.46292500       0.76541000       0.82059900
O        2.37546600      -1.18597600      -1.03031300
H       -2.16337500       1.14921400       0.24195900
H       -2.43888400      -0.40821600       1.04468700
H       -2.39893200      -0.31706000      -0.72062000
H       -0.17847100      -1.21876800       0.17622700
H        1.75508700      -0.46094600      -1.11541600
H        0.08457600       1.68340500       1.26320300
H        1.40726200       0.40728700       1.22091400
H        2.99242900      -1.07956800      -1.75552100
