12
smiles: [C:4](=[C:5]=[O:6])([H:11])[H:12].[O:1]([C:2](=[C:3]([H:9])[H:10])[H:8])[H:7]
O        1.85257200      -0.44166700      -0.47425900
C        1.05264900      -1.33072300       0.15862900
C        0.35796300      -1.12407300       1.26797600
C       -1.69027300       1.16740200      -1.06912900
C       -0.64314300       1.67179600      -0.47017400
O        0.28193300       2.11598900       0.06044200
H        1.84928100       0.39006900       0.00727600
H        1.04209200      -2.27853400      -0.36688900
H       -0.24777000      -1.91801100       1.67894900
H        0.37207900      -0.17369500       1.79022900
H       -2.12367400       1.68958700      -1.90742400
H       -2.10314900       0.23678900      -0.71274200
