19
Extracted from Q-Chem output
C      -2.432592     -0.418096     -0.280366
C      -1.236702      0.469884      0.046970
C      -0.221077     -0.185654      0.965310
C       1.412341      0.386408      0.103566
C       2.590856     -0.536262      0.254066
C       0.887430      0.802747     -1.307532
C      -0.451935      0.878669     -1.247304
H      -2.099994     -1.360282     -0.723553
H      -3.024855     -0.647746      0.607992
H      -3.087849      0.072744     -1.002878
H      -1.593503      1.395631      0.511175
H      -0.065848      0.268384      1.935295
H      -0.296100     -1.270916      1.046435
H       1.459409      1.295388      0.689055
H       2.450137     -1.449193     -0.325717
H       2.766247     -0.799836      1.298056
H       3.478638     -0.034703     -0.132034
H       0.505858     -0.206847     -0.301252
H      -1.058404      1.264881     -2.061422
