18
smiles: [C:1](=[C:2]([H:11])[H:12])([H:8])[H:10].[H:9][H:13].[N:3]1=[C:4]([H:14])[C@:5]1([C:6]([O:7][H:18])([H:16])[H:17])[H:15]
C       -2.46154000       0.61527500      -0.69859000
C       -2.60043700      -0.67591600      -0.45221900
N        0.82679800      -1.02312100      -0.50701500
C        1.48461900      -1.18695000       0.54072500
C        1.04892200       0.17926000       0.39160800
C        1.97184000       1.26564400      -0.11318200
O        3.10885100       0.75653500      -0.76616600
H       -1.56878800       1.01234600      -1.16813700
H       -1.34185100      -1.21050200       2.17221100
H       -3.23417900       1.33048400      -0.44048400
H       -3.49319800      -1.07291500       0.01738100
H       -1.82779300      -1.39114000      -0.71024900
H       -1.04438900      -1.48844200       2.79563700
H        2.00500400      -1.98171400       1.05704100
H        0.17263200       0.53278100       0.93090500
H        1.40464500       1.94059300      -0.76835400
H        2.33494600       1.85615500       0.73119400
H        2.81499000       0.20840300      -1.49835000
