18
Extracted from Q-Chem output
C      -2.512091     -0.089699      0.315638
C      -1.882830     -0.119317     -0.892384
N       0.274790     -0.582706     -0.614120
C       0.579491     -0.958639      0.591933
C       0.871291      0.427536      0.290710
C       2.241397      0.945564     -0.078631
O       3.059330     -0.051545     -0.637337
H      -2.685730      0.852919      0.822120
H      -1.386863     -0.574424      1.320285
H      -3.144337     -0.915671      0.621711
H      -1.952428     -0.984518     -1.535488
H      -1.527612      0.788945     -1.357445
H      -0.599464     -0.841928      1.533229
H       0.961075     -1.886509      0.994641
H       0.190133      1.175330      0.706079
H       2.121537      1.792304     -0.769723
H       2.750826      1.318669      0.813022
H       2.527568     -0.525284     -1.284895
