11
Extracted from Q-Chem output
N       1.500001      0.585047      0.421569
C       1.309188     -0.006115     -0.672465
O       0.203123     -0.715230     -0.929149
C      -0.738943     -0.790946      0.131094
C      -1.444990      0.527417      0.371882
O      -2.230069      0.679421      1.262029
H       2.390296      1.067531      0.429095
H       1.973482     -0.031400     -1.537116
H      -0.267921     -1.117426      1.059829
H      -1.477851     -1.529908     -0.180648
H      -1.216316      1.331611     -0.356120
