11
Extracted from Q-Chem output
N       0.538229      0.856652     -0.336332
C       1.315908     -0.199783     -0.615440
O       0.924402     -1.360836     -0.482558
C      -0.986637     -0.788188      0.109254
C      -0.531181      0.482811      0.647698
O      -0.356271      0.802264      1.841500
H       0.977967      1.755980     -0.211463
H       2.327027      0.006110     -0.978788
H      -1.439785     -1.513932      0.779145
H      -1.235425     -0.833227     -0.941417
H      -1.604702      0.811437      0.175561
