13
Extracted from Q-Chem output
C      -1.126487      1.399432     -1.099223
C       0.587884     -0.949470      0.960064
C      -0.600469     -0.756450      0.056407
C      -0.418316      0.285476     -1.003119
C       1.640095     -0.149913      1.039230
H      -0.952607      2.115560     -1.893165
H      -1.907676      1.636572     -0.384250
H       0.544894     -1.827805      1.599463
H      -1.476414     -0.515774      0.668456
H      -0.826113     -1.717556     -0.420251
H       0.361981      0.087480     -1.734647
H       2.450174     -0.358850      1.726951
H       1.725356      0.743908      0.431111
