13
Extracted from Q-Chem output
C      -0.652434      1.039487     -0.119589
C      -0.132493      0.023318      0.924845
C      -0.567303     -1.093705     -0.053338
C       0.132087     -0.023469     -0.924281
C       1.219322      0.054089      0.173434
H      -0.219924      2.041027     -0.082843
H      -1.732342      1.072381     -0.275232
H      -0.286635      0.050970      2.002728
H      -1.640870     -1.221403     -0.204185
H      -0.057613     -2.054166      0.042451
H       0.286916     -0.050855     -2.002066
H       1.861922     -0.820827      0.287418
H       1.789368      0.983153      0.230659
