10
Extracted from Q-Chem output
C      -1.440442      0.087772     -0.184240
C      -0.577508      1.188716     -0.490474
N       0.611909      1.192810     -0.003821
C       1.067391     -0.028459      0.596555
N       0.439499     -1.251390      0.184906
C      -0.742514     -1.155975     -0.310509
H       0.979610      0.062496      1.686783
H      -0.949859      2.080709     -0.988740
H       2.138763     -0.121051      0.392474
H      -1.238514     -2.053060     -0.673641
