10
Extracted from Q-Chem output
C      -0.921522      0.111970      0.442624
C      -0.473216      1.210700     -0.393729
N       0.808449      1.165662     -0.361337
C       1.058235     -0.063288      0.395812
N       0.592101     -1.320058     -0.195095
C      -0.678389     -1.148191     -0.236311
H       0.238468      0.069329      1.312499
H      -1.073676      1.928791     -0.937038
H       2.054365     -0.122429      0.823383
H      -1.398941     -1.820757     -0.683737
