14
Extracted from Q-Chem output
C       1.619494     -0.962288     -1.715531
O       0.861646     -0.506949     -0.769950
C      -0.420574     -0.359558     -0.714452
C      -0.080655      0.284844      1.692928
C      -1.021529      0.258817      0.498213
O      -1.541181      1.565275      0.221783
H       1.173643     -1.295779     -2.642670
H       0.818795      0.863596      1.472234
H       2.668715     -1.002237     -1.482497
H      -1.001730     -0.620030     -1.592765
H      -0.588392      0.749622      2.537241
H       0.227470     -0.722743      1.976509
H      -1.917043     -0.311050      0.764091
H      -0.826511      2.093419     -0.142880
