14
Extracted from Q-Chem output
O       2.085859     -1.000337      0.097564
C       1.273681     -0.050007     -0.552334
C      -0.043600      0.118938     -0.097521
O       0.305885      1.583961      0.950451
C      -1.157325     -0.646117      0.486792
C      -1.377370      0.302022     -0.682307
H       1.888748     -1.872905     -0.250005
H       1.477051      0.111513     -1.608035
H       1.209416      1.174826      0.273981
H       0.469648      1.277260      1.851138
H      -1.569333     -0.350929      1.440980
H      -1.150816     -1.714506      0.305185
H      -1.534814     -0.111992     -1.670776
H      -1.909711      1.218428     -0.473202
