13
Extracted from Q-Chem output
O       1.737998      2.132793      0.427113
C       0.833257      1.338177      0.280602
N       1.234130     -0.100043      0.408519
C       0.563876     -0.947569     -0.413744
C      -0.797027     -0.604783     -0.584087
C      -1.307898      0.423448      0.343607
N      -0.446230      1.522494     -0.028268
H       2.232177     -0.211067      0.494621
H      -0.206761     -1.761368      0.129035
H       1.086720     -1.537094     -1.163209
H      -1.349994     -1.014691     -1.422810
H      -2.349110      0.665520      0.137847
H      -1.224765      0.103624      1.393220
