15
Extracted from Q-Chem output
C      -1.179568     -1.152114      0.383822
C      -0.227568     -0.093820     -0.104268
C      -0.690277      0.917383     -1.084374
N      -0.411897      1.300183      0.295991
C       1.216387     -0.542319     -0.194794
O       1.504058     -1.686305     -0.482012
N       2.123917      0.430652      0.035837
H      -2.211001     -0.797797      0.329013
H      -1.082989     -2.050802     -0.223519
H      -0.958108     -1.423017      1.418181
H       0.000883      1.314287     -1.818562
H      -1.723110      0.854269     -1.409271
H      -1.266466      1.406263      0.828005
H       1.806087      1.323195      0.373431
H       3.099652      0.199941      0.001067
