11
Extracted from Q-Chem output
C      -1.507328      0.512660     -0.924758
N      -0.928865      0.788342      0.157766
C      -0.271968     -0.297356      0.839500
O       1.057159      0.083357      1.183782
C       1.963027      0.001479      0.205497
O       1.765086     -0.396568     -0.903867
H      -2.030960      1.302287     -1.459566
H      -0.244886     -1.224083      0.254575
H      -1.506930     -0.488475     -1.371009
H      -0.770280     -0.464003      1.793626
H       2.932820      0.352109      0.582676
