19
Extracted from Q-Chem output
C      -1.337697     -1.459375     -0.316221
C      -1.031549      0.935014      0.042742
C      -0.080486      0.866223      1.198071
C       1.269088      0.534398      0.510847
C       1.311899     -0.910977      0.132493
C       1.000660      0.965086     -0.901919
C      -0.331372      1.220519     -1.115750
H      -1.009423     -2.499762     -0.399695
H      -1.930218     -1.369421      0.592642
H      -1.937918     -1.209975     -1.187817
H      -2.104656      0.987166      0.154420
H      -0.018552      1.850106      1.672601
H      -0.373662      0.146473      1.963627
H       2.129872      0.967148      1.022890
H       1.154035     -1.644410      0.922989
H       2.136379     -1.184835     -0.516518
H      -0.035117     -1.092566     -0.302693
H       1.770649      0.979038     -1.661997
H      -0.780421      1.399726     -2.083168
