13
Extracted from Q-Chem output
O       1.341675      1.806002     -0.363968
C       0.728399      0.753543     -0.075553
C       1.701568     -0.105630      0.537242
O       0.460450     -0.471483     -1.241598
C      -0.893845     -0.377248     -0.880792
C      -1.166191     -0.757655      0.534021
C      -0.762978      0.654276      0.186209
H       1.683883     -0.443947      1.572511
H       2.590930     -0.266538     -0.056991
H      -1.631539     -0.476660     -1.667884
H      -0.470798     -1.436698      1.018518
H      -2.201045     -0.879411      0.829340
H      -1.364703      1.524951      0.398955
