11
Extracted from Q-Chem output
C      -1.556517      0.015985     -0.209071
N      -0.569009     -1.047788     -0.083847
C       0.734623     -0.952138      0.111384
N       1.149523      0.350636      0.199457
C       2.447515      0.638736      0.399516
N       3.544229      0.936454      0.569838
H      -1.599335      0.626458      0.696818
H      -2.538139     -0.427202     -0.359043
H      -1.343223      0.658778     -1.067139
H      -0.914314     -1.988102     -0.153495
H       0.541945      1.159688      0.126376
