14
Extracted from Q-Chem output
C       1.839498      0.259422      0.382367
C       0.403954      0.508291     -0.050692
C      -0.379796     -0.722732     -0.529898
C      -1.799903     -0.351161     -0.169427
O      -1.640467      0.640480      0.910548
C      -0.454653      1.141610      1.022442
H       1.876596     -0.471966      1.192634
H       2.293596      1.181187      0.745689
H       2.440202     -0.122284     -0.445162
H       0.400109      1.281575     -0.835503
H      -0.056559     -1.610232      0.018999
H      -0.258736     -0.919969     -1.594266
H      -2.412495     -1.156481      0.229971
H      -2.339098      0.149516     -0.975172
