15
smiles: [C:1]([H:6])([H:7])([H:8])[H:9].[C:2]1(=[C:3]([H:10])[H:11])[C:4]([H:12])([H:13])[C:5]1([H:14])[H:15]
C        2.15068000      -1.22945000      -0.43514300
C       -1.26658700       0.33883800       0.10717100
C       -2.04555200      -0.63575300      -0.30220500
C       -0.59131200       1.01066100       1.21522500
C       -0.46842800       1.51736900      -0.22294200
H        2.46183100      -0.40488100       0.20442000
H        2.58465600      -2.15780700      -0.06686700
H        2.49023200      -1.04776800      -1.45371600
H        1.06452400      -1.30739200      -0.42335300
H       -2.45189700      -1.35936300       0.39502400
H       -2.30376800      -0.74641400      -1.34907200
H       -1.18712300       1.59718100       1.90500200
H        0.27683000       0.53683100       1.65857400
H       -0.98317700       2.43625700      -0.47898000
H        0.48061200       1.37793900      -0.72768300
