16
Extracted from Q-Chem output
C       1.756800     -0.447562     -0.309577
N       0.752396      0.343949     -0.125000
C      -0.220911      0.677811      1.003136
C      -0.984697      1.501104     -0.044105
C      -0.539573      0.339237     -0.948321
C      -1.190092     -0.934980     -0.350257
C      -0.996988     -0.625611      0.960873
H       2.050826     -0.650745     -1.329621
H       2.451061     -0.653090      0.496214
H       0.886969     -2.061366     -0.504828
H       0.197361      1.085247      1.920460
H      -0.490343      2.442849     -0.294328
H      -2.051879      1.615045      0.121845
H      -0.416145      0.447300     -2.024049
H       0.019215     -1.980581     -0.520942
H      -1.103995     -1.281966      1.817023
