13
Extracted from Q-Chem output
O      -1.661694      0.422091     -0.341630
C      -1.156255     -0.508860      0.334564
C       0.155208     -1.131987     -0.156388
O       1.292584     -0.237371     -0.288848
C       1.342717      0.980393      0.204303
N       0.381287      1.704388      0.664807
H      -0.521950      1.475265      0.131444
H      -0.715623     -0.041188      1.586086
H      -1.806985     -1.268451      0.805070
H       0.481148     -1.928338      0.514384
H      -0.007420     -1.540502     -1.155115
H       2.377223      1.325373      0.230314
H      -0.171583      0.769369      1.436614
