16
Extracted from Q-Chem output
C       1.431162      0.704095      0.638482
C       0.844844     -0.138498     -0.485527
N      -0.451663     -0.818471     -0.250246
C      -0.895621     -1.106363      1.089141
C       0.118686      0.700664     -1.536354
O       0.459092      1.476775     -2.372300
C      -1.214472      0.149912     -1.046056
H       1.752310      0.077677      1.472333
H       2.301253      1.244457      0.263914
H       0.715826      1.437986      1.015727
H       1.605495     -0.813833     -0.889125
H      -0.190322     -1.779471      1.579528
H      -1.859193     -1.617171      1.046232
H      -1.015674     -0.211739      1.720952
H      -1.886375     -0.273766     -1.795772
H      -1.761607      0.901599     -0.456290
