14
Extracted from Q-Chem output
C      -1.841752      0.038336      0.745096
N      -0.677756     -0.244527      0.219546
C       0.066303     -1.369339      0.236527
C       1.290649     -1.122650     -0.445607
C       1.350139      0.138077     -0.917215
C       0.078231      0.832523     -0.550829
O       0.200619      1.987871      0.209935
H      -2.239479      1.030146      0.609062
H      -2.357259     -0.712423      1.323547
H      -0.548608      1.089955     -1.406348
H      -0.270272     -2.253656      0.750033
H       2.056129     -1.876538     -0.569826
H       2.115403      0.599786     -1.518669
H       0.944538      1.863373      0.807701
