12
Extracted from Q-Chem output
C      -1.313051      0.756719      0.845243
C      -0.203820      0.093817      0.085409
N      -0.332490      0.026327     -1.239516
N       0.819738     -0.347176      0.771166
C       1.871219     -0.929076      0.114802
O       2.007120     -1.115787     -1.085729
H      -1.035341      1.794381      1.040971
H      -1.435740      0.259787      1.804487
H      -2.255196      0.745957      0.296517
H      -1.149682      0.388233     -1.694058
H       0.430323     -0.396760     -1.757417
H       2.664573     -1.250383      0.806761
