12
Extracted from Q-Chem output
C      -1.399743      0.427926      0.795852
C      -0.336988      0.648819     -0.254261
N      -0.391406      1.474431     -1.222834
N       0.752906     -0.126117     -0.075505
C       1.770508     -0.809683      0.004346
O       1.987469     -1.981618     -0.628862
H      -2.294421      1.001325      0.559209
H      -1.026247      0.738809      1.772936
H      -1.660525     -0.629475      0.861513
H      -1.271166      1.977944     -1.191259
H       1.230675     -2.160265     -1.199601
H       2.639663     -0.560391      0.617520
