16
Extracted from Q-Chem output
C      -1.531936      0.512476      0.383883
C      -0.533243      0.714754     -0.745395
C       0.905781      0.939779     -0.292150
C       1.231056     -0.308965      0.534919
C       0.331468     -1.392781     -0.083028
C      -0.840497     -0.743222     -0.811241
H      -1.137333      0.619851      1.388098
H      -2.492201      0.988527      0.217090
H      -0.891075      1.355350     -1.545562
H       1.545274      0.992310     -1.177236
H       1.040171      1.871349      0.261671
H       0.979433     -0.153341      1.586506
H       2.289956     -0.567941      0.504346
H       0.034989     -2.181284      0.610171
H       0.855274     -1.898634     -0.902512
H      -1.860870     -0.619998      0.204129
