11
Extracted from Q-Chem output
N      -2.034629     -0.115474      0.266324
C      -0.786398      0.063414      0.149478
C       0.219316     -0.975758     -0.297039
C       1.479236     -0.167405     -0.320163
N       1.308806      1.037434      0.057608
N      -0.017046      1.185911      0.388933
H      -2.512448      0.723130      0.586164
H      -0.047281     -1.393881     -1.268810
H       0.261766     -1.804133      0.413538
H       2.461846     -0.508689     -0.614056
H      -0.357242      2.112168      0.567398
