11
Extracted from Q-Chem output
N      -1.818406     -0.209355     -0.112212
C      -0.582296      0.110567      0.202210
C       0.321161     -0.926486     -0.220529
C       1.564842     -0.173541     -0.324816
N       1.457751      1.043470      0.098079
N       0.127952      1.204574      0.509709
H      -2.627573      0.238645      0.295810
H      -1.022772     -1.147863     -0.740770
H       0.329198     -1.837325      0.374800
H       2.534388     -0.523025     -0.651674
H      -0.215793      2.145094      0.580531
