17
Extracted from Q-Chem output
C      -1.909954      0.510609     -0.142501
C      -0.678054      0.984823      0.589645
C       1.007530     -2.330626      0.418593
C       0.567075     -1.210258     -0.134046
C       0.613080      0.125826      0.520025
C       1.158457      1.308181     -0.297853
O      -0.028412      2.078549     -0.085114
H      -2.325818     -0.377458      0.339015
H      -1.686180      0.271048     -1.183182
H      -2.667371      1.295877     -0.132860
H      -0.940489      1.271981      1.613219
H       0.959422     -3.278534     -0.103118
H       1.437938     -2.338548      1.414848
H       0.149992     -1.246969     -1.137769
H       1.089896      0.042822      1.497011
H       2.047654      1.798403      0.106127
H       1.319534      1.092678     -1.359824
