15
Extracted from Q-Chem output
N       1.602730      1.087256      0.547454
C       0.391925      0.887416     -0.420315
O      -0.051724      1.870009     -0.937553
N       0.324818     -0.431142     -0.899141
C      -1.018378     -0.933081     -0.590710
C      -1.181722     -0.736833      0.936618
O      -0.524659      0.430052      1.263274
H       1.785236      2.082498      0.615309
H       2.446874      0.574232      0.321957
H       0.991664     -1.026874     -0.423379
H      -1.110456     -1.969457     -0.916368
H      -1.734075     -0.325752     -1.144818
H      -0.755550     -1.618120      1.450664
H      -2.248709     -0.700107      1.196522
H       0.999970      0.706911      1.363026
