12
Extracted from Q-Chem output
N       2.093241     -0.464799     -0.014489
C       0.771215     -0.134982     -0.006495
N      -0.136755     -1.111086      0.254339
C      -1.493675     -0.967247      0.329446
C      -1.851169      0.380893      0.103983
C      -0.907690      1.345355     -0.142350
N       0.415076      1.104986     -0.208947
H       2.703147      0.254139     -0.362771
H       2.363750     -1.411013     -0.213282
H       0.225327     -2.037925      0.426790
H      -2.898032      0.656246      0.133981
H      -1.189118      2.382246     -0.307130
