12
Extracted from Q-Chem output
N       2.176843     -0.382369     -0.124291
C       0.849684     -0.131701     -0.102906
N       0.000314     -1.157530      0.098704
C      -1.350303     -0.973862      0.310856
C      -1.810652      0.338127      0.208322
C      -0.893429      1.309510     -0.140053
N       0.420074      1.103709     -0.286549
H       2.781056      0.355106     -0.436431
H       2.490494     -1.332189     -0.191939
H      -0.579561     -2.045731      0.596291
H      -2.850973      0.585011      0.369016
H      -1.212083      2.335683     -0.307900
