16
smiles: [C:1]([C:2][O:3][H:10])([H:7])([H:8])[H:9].[C:4]1([H:11])([H:12])[C:5]([H:13])([H:14])[C:6]1([H:15])[H:16]
C        2.67564900       0.32813000      -0.28865700
C        2.69496700      -1.07316800       0.21981200
O        1.50015900      -1.52647000       0.45424600
C       -1.40197100      -0.28938000      -0.60181100
C       -2.60307600       0.33615600       0.04027300
C       -1.29433700       0.30489600       0.76976700
H        3.29542600       0.93821800       0.37330900
H        1.67394400       0.78301600      -0.38448300
H        3.17954800       0.33892200      -1.25880100
H        0.79034200      -0.87799800       0.26207600
H       -0.93172200       0.23632800      -1.42239300
H       -1.37797200      -1.36745300      -0.69232400
H       -3.39272800      -0.31867500       0.38446800
H       -2.94918400       1.28657600      -0.34418100
H       -1.19577900      -0.36969600       1.60999800
H       -0.75169300       1.23470900       0.87818700
