16
Extracted from Q-Chem output
C      -2.351279      0.233933      0.063410
C      -1.030667     -0.502832     -0.112037
C       0.133995      0.431043     -0.448385
C       1.428541     -0.294671     -0.663848
C       2.472501     -0.303893      0.156998
O       2.594793      0.349923      1.339920
H      -3.162517     -0.456026      0.301304
H      -2.290462      0.966599      0.872325
H      -2.627938      0.770971     -0.847337
H      -0.786975     -1.060436      0.797242
H      -1.126502     -1.249653     -0.906252
H      -0.115354      1.001012     -1.349884
H       0.225772      1.183913      0.344850
H       1.518249     -0.893035     -1.563190
H       1.791470      0.846339      1.516931
H       3.369764     -0.868235     -0.065136
