16
Extracted from Q-Chem output
C      -2.377763      0.340281     -0.055414
C      -1.103148     -0.489850      0.015822
C       0.146932      0.327596     -0.290898
C       1.424031     -0.523020     -0.300752
C       2.643402      0.076876      0.063889
O       2.669261      0.362072      1.308918
H      -3.258414     -0.262669      0.172451
H      -2.349011      1.169172      0.656247
H      -2.516569      0.766913     -1.052090
H      -1.000763     -0.938220      1.008547
H      -1.168315     -1.326081     -0.688048
H       0.020213      0.809842     -1.268629
H       0.240482      1.135240      0.441014
H       1.449521     -1.237095     -1.122555
H       1.664142     -0.393444      1.178446
H       3.540211      0.257658     -0.534578
