12
Extracted from Q-Chem output
O       1.082663      1.152064     -0.021194
C       2.020685      0.139035     -0.110358
C       0.923396     -0.778451     -0.303433
C      -0.204817     -1.280241     -0.400664
C      -1.512888     -0.903365     -0.351892
O      -1.447679      1.039512      0.039633
H      -0.419686      1.106089      0.095763
H       2.599976     -0.047566      0.803206
H       2.700983      0.214537     -0.967770
H      -2.083020     -0.823064     -1.270842
H      -2.092695     -1.093181      0.542650
H      -1.683843      1.545191     -0.742620
