9
smiles: [N-:4]([N+:5]#[C:6][H:9])[H:8].[O:1]([C:2]#[N:3])[H:7]
O       -1.96428500      -0.34015700       0.19492600
C       -1.15921700      -1.34927300       0.12551600
N       -0.48658900      -2.28089300       0.07847900
N        1.76520800       0.23351700       0.84548400
N        1.01810300       0.79204800       0.04183800
C        0.20557900       1.39278000      -0.57228600
H       -1.50043000       0.47761100      -0.01796900
H        1.91916100      -0.72859000       0.54548500
H        0.28461700       2.03172600      -1.43390200
