9
Extracted from Q-Chem output
O      -1.459095     -0.446166     -1.078565
C      -1.240837     -0.356792      0.234878
N      -1.508692     -0.696614      1.331020
N       2.207948     -0.327700     -0.054879
N       1.266815      0.433235      0.109953
C       0.145609      0.838245      0.350190
H      -2.153928     -1.104211     -1.202694
H       2.843960      0.069865     -0.751496
H      -0.079618      1.662163      1.009117
