13
Extracted from Q-Chem output
N      -1.649232     -0.544528     -1.575217
C      -0.909783     -0.278150     -0.409350
O      -0.799491      1.098203      0.003122
C       0.362987      0.423010     -0.455230
C       1.445902      0.232159      0.579125
O       0.922131     -0.081318      1.844244
H      -1.101646     -0.734926     -2.396931
H      -2.384861     -1.218218     -1.454825
H      -1.098802     -0.936978      0.433325
H       0.719325      0.758185     -1.430228
H       2.102761     -0.589002      0.283013
H       2.053338      1.146818      0.619297
H       0.216228      0.550954      2.015148
