13
Extracted from Q-Chem output
N      -1.333983     -0.980427     -1.366096
C      -0.990443      0.281812     -0.784664
O      -1.564656      1.360496     -1.184291
C       0.428847      0.668491     -0.599348
C       1.269666      0.298392      0.551262
O       0.811156     -0.889513      1.142863
H      -0.792623     -1.742016     -0.976890
H      -2.320420     -1.156437     -1.230346
H      -1.053020      0.243113      0.378680
H       0.747490      1.531265     -1.177009
H       2.281978      0.173522      0.129366
H       1.343544      1.120891      1.276719
H       1.120281     -0.941430      2.047491
