14
Extracted from Q-Chem output
C       0.247776     -1.246046     -0.325886
C      -1.046912     -0.423398     -0.419616
C      -0.800969      0.750753      0.511461
O       0.636699      0.751533      0.845867
C      -0.165096      1.966218     -0.034769
C       1.304999     -0.205100     -0.009077
H       0.471565     -1.788790     -1.244032
H       0.180345     -1.971600      0.487041
H      -1.196499     -0.047413     -1.431561
H      -1.919396     -1.006216     -0.124595
H      -1.377878      0.746310      1.437027
H      -0.202941      2.731316      0.755527
H       1.652409      0.324324     -0.895151
H       2.149344     -0.584763      0.565073
