14
Extracted from Q-Chem output
C       0.286107     -0.992116     -0.648611
C      -1.106444     -0.597538     -0.114130
C      -0.884426      0.777149      0.453030
O       0.276465      0.746889      1.278419
C       0.213211      1.546201     -0.129008
C       1.317829     -0.206530      0.113659
H       0.358361     -0.747468     -1.706627
H       0.459857     -2.062840     -0.513511
H      -1.857459     -0.598849     -0.905854
H      -1.441757     -1.277855      0.672882
H      -1.704125      1.284026      0.953917
H       0.184931      2.604950      0.146537
H       2.109302      0.239613     -0.471976
H       1.721597     -0.718503      0.988582
