16
smiles: [H:7][H:10].[O:1]=[C:2]([C:3]1([H:9])[C:4]([H:11])([H:12])[C:5]([H:13])([H:14])[C:6]1([H:15])[H:16])[H:8]
O        2.45102400       0.12026900       0.42900200
C        1.58603800      -0.56388500       0.90523300
C        0.14303000      -0.18193100       0.99541900
C       -0.82036500      -0.95112800       0.04566800
C       -1.54943700       0.38510400      -0.21016500
C       -0.32819400       1.13592200       0.36091500
H        1.69469200       0.23067900      -2.27234400
H        1.82620800      -1.57803400       1.29306200
H       -0.18126200      -0.29303100       2.03456700
H        1.32076400       0.20064000      -2.91551600
H       -1.39351100      -1.77353100       0.47161800
H       -0.30051100      -1.30779700      -0.84541400
H       -1.83698400       0.60320100      -1.23800000
H       -2.42762800       0.49042100       0.42812600
H       -0.51525900       1.97292700       1.03176500
H        0.36823700       1.45530400      -0.41475800
