12
Extracted from Q-Chem output
C       1.640714     -0.311566     -0.094733
C       0.340092      0.171753     -0.574076
C      -0.861942     -0.706027     -0.378238
N      -1.526624      0.306161      0.444254
C      -0.602702      1.380988      0.410245
N      -0.209363      2.394264      0.862831
H       1.936513     -1.077421     -0.828502
H       1.593902     -0.828892      0.872289
H       2.396923      0.470868     -0.064618
H      -1.358077     -0.899088     -1.333198
H      -0.744490     -1.643101      0.174400
H      -2.437181      0.605920      0.118562
