14
smiles: [C:1]1([H:7])([H:8])[C@@:2]2([H:9])[C:3]([H:10])([H:11])[O+:4]=[C-:5][C@@:6]12[H:14].[H:12][H:13]
C        1.02848200       0.16115100      -0.67506800
C        0.78274000       0.67305500       0.69698500
C       -0.39490100       1.58722900       0.82736300
O       -1.53169200       0.79129600       0.32868100
C       -1.27249600      -0.45530300       0.06757800
C        0.18038600      -0.65419800       0.27772200
H        0.52929600       0.64458200      -1.50795500
H        2.00646400      -0.23937500      -0.90437000
H        1.58298800       0.72483000       1.42095400
H       -0.35354700       2.48429800       0.21005700
H       -0.62103400       1.86121600       1.85811200
H       -1.46967300      -2.87465800      -1.34066600
H       -1.21465500      -3.49807900      -1.65799200
H        0.54544700      -1.61793400       0.60079600
