14
Extracted from Q-Chem output
C      -1.617764     -0.364932      0.953337
C      -0.498833      0.504716     -0.496527
C       0.625672      1.224342     -1.163781
C       0.750252     -0.255314     -0.943166
C       1.069348     -0.571182      0.488928
O       0.046592      0.337959      0.978165
H      -1.366073     -0.892540      1.875874
H      -2.258095      0.489038      1.113830
H      -1.999407     -1.035278      0.196007
H       1.220499      1.931190     -0.593950
H       0.434630      1.510029     -2.191246
H       0.843516     -0.957671     -1.760193
H       2.051356     -0.312489      0.896838
H       0.817818     -1.596840      0.779045
