19
Extracted from Q-Chem output
C       2.350143     -0.340283     -0.127742
C       1.572595      0.884458     -0.609752
C       0.171841      0.883892     -0.068064
C      -0.956875      0.502987     -0.823801
C      -2.124308      0.052699     -0.144780
C      -1.439668     -1.386807      0.571584
O      -0.344299     -1.102396      1.192096
H       2.384551     -0.377124      0.960210
H       1.865932     -1.259327     -0.453986
H       3.369108     -0.307687     -0.517515
H       2.087159      1.794750     -0.293444
H       1.538582      0.896324     -1.703202
H      -0.002280      1.115238      0.974808
H      -0.550652      1.782458     -0.673985
H      -0.791075      0.268754     -1.871780
H      -2.990331     -0.154286     -0.768268
H      -2.378950      0.618338      0.747289
H      -2.313165     -1.665398      1.191959
H      -1.376831     -2.095605     -0.281978
