14
Extracted from Q-Chem output
C      -1.656655     -1.265179      0.777648
C       0.414624      1.493162     -1.250294
C       0.452247      1.533511      0.069143
O       1.191573      0.712786      0.879176
C       1.439741     -0.587597      0.554113
N       0.652130     -1.448593      0.103118
C      -0.706597     -1.232671     -0.146143
H      -1.423640     -1.403196      1.826204
H      -2.695492     -1.171402      0.493383
H      -0.179058      2.223076     -1.780810
H      -0.072150      2.276574      0.656044
H       0.951275      0.750671     -1.827027
H       2.464339     -0.853123      0.800549
H      -0.952612     -1.122936     -1.198761
