16
Extracted from Q-Chem output
C       1.232270     -0.721902      0.866742
C       1.034659      0.320705     -0.214174
C      -0.264290      0.218368     -1.082386
C      -1.295418     -0.811814     -0.675757
C       0.407053      1.617102      0.040640
C      -0.468861      1.655670      1.164567
N      -1.144162      1.804995      2.090180
H       0.373665     -0.796644      1.533441
H       1.425849     -1.704207      0.431705
H       2.098367     -0.453007      1.472850
H       1.909121      0.397744     -0.856485
H       0.024479      0.199508     -2.131279
H      -2.148723     -0.772344     -1.352803
H      -0.874483     -1.817463     -0.713554
H      -1.666051     -0.634375      0.334069
H      -0.732625      1.264084     -1.053357
