15
Extracted from Q-Chem output
O       2.039973      1.138100     -0.262509
C       0.961487      0.280783     -0.162320
C       1.038805     -1.233122     -0.048299
C       0.105011     -1.408028     -0.981950
C      -1.443506      0.268690      1.062917
C      -0.451893      0.785175      0.055939
C      -0.071301      0.077699     -1.235087
H       2.283098      1.429758      0.618326
H       1.523820     -1.894016      0.659366
H      -1.374750     -0.814347      1.170427
H      -0.468903     -2.267783     -1.303910
H      -2.463005      0.513727      0.757668
H      -1.273021      0.717146      2.044087
H      -0.485164      1.864196     -0.084428
H      -0.083514      0.575707     -2.193661
