15
Extracted from Q-Chem output
O      -1.299135     -0.227540      1.801564
C      -1.235111      0.365334      0.513938
C      -0.390447     -0.412780     -0.458922
C       0.283110      0.288862     -1.586063
C       1.142591     -0.343843     -0.531708
C       2.259650      0.616050      0.185421
C       1.576886      0.295488      1.179435
H      -1.751217     -1.070331      1.733385
H      -0.824428      1.364270      0.662219
H      -2.241706      0.484702      0.095647
H      -0.777343     -1.404500     -0.677282
H       0.288393     -0.162755     -2.569701
H       0.256331      1.371554     -1.581355
H       1.602993     -1.285569     -0.793311
H       0.995396      0.056421      2.048815
