15
Extracted from Q-Chem output
C      -1.613907      0.204406      0.358181
C      -0.603376     -0.384852     -0.605454
C       0.150516      0.534502     -1.507677
C       0.858736      1.499534     -0.830863
N       1.420877      2.114802     -0.013233
N       0.660357     -0.899636     -0.061914
C       1.203291     -0.306879      1.049364
H      -1.237884      1.103833      0.846580
H      -2.502113      0.487987     -0.206150
H      -1.912908     -0.520051      1.119881
H      -1.046683     -1.193379     -1.184118
H       0.406968      0.245457     -2.513541
H       2.253814     -0.498683      1.231382
H       0.695662     -1.584439      0.903523
H       0.664278      0.385797      1.683493
