16
Extracted from Q-Chem output
C      -1.981221     -0.420998      0.043461
C      -1.158621      0.634221      0.732802
N      -0.055384      0.272658      1.625764
C       0.241267      0.926111      0.356901
C       0.946967      0.172337     -0.726306
C       2.237157     -0.466846     -0.481305
O       1.046881     -1.235543     -0.585966
H      -2.520188      0.008944     -0.803801
H      -2.721427     -0.833376      0.732487
H      -1.365469     -1.241258     -0.325356
H      -1.737768      1.471817      1.111712
H       0.136086     -0.721030      1.523084
H       0.594068      1.949993      0.452525
H       0.728430      0.500289     -1.740963
H       2.942640     -0.599028     -1.295642
H       2.666583     -0.418294      0.515377
