14
Extracted from Q-Chem output
O      -1.053343      0.003382     -1.073596
C      -1.333025     -0.534504      0.435752
C      -0.054904     -0.992281      0.832375
C       0.835924      0.139772     -0.922764
C       1.132916      0.828245      0.384491
O       0.896860     -0.124397      1.387644
H      -1.590292      0.767881     -1.366072
H      -1.751237      0.357752      0.906755
H      -2.072539     -1.319502      0.316027
H       0.120985     -2.033636      1.064975
H       1.377664     -0.775920     -1.116950
H       0.825991      0.791872     -1.795258
H       0.472326      1.699594      0.498482
H       2.166158      1.203332      0.441462
