13
Extracted from Q-Chem output
O       1.162285      3.209601      0.532995
C       0.275718      2.459286      0.436115
N       1.196913     -0.657296     -0.048697
C       0.275102     -1.783869     -0.169332
C      -0.154343     -0.420677     -0.534985
C      -1.026462      0.392523      0.381858
N      -0.718803      1.800263      0.308581
H       1.868113     -0.650473     -0.805395
H      -0.045137     -2.214423      0.772672
H       0.427442     -2.500809     -0.968014
H      -0.279777     -0.205619     -1.592374
H      -2.076620      0.265263      0.116346
H      -0.894726      0.043966      1.409303
