14
Extracted from Q-Chem output
C       1.166913     -0.133778     -0.729788
C       0.227352     -1.167224     -0.320181
C      -1.551749     -0.016009      0.015830
C      -0.530099     -0.689160      0.862538
N       0.050400      0.690384      1.191676
C       0.945440      0.980913      0.077959
C      -0.910073      1.191169      0.231322
H       1.616245     -0.111849     -1.712687
H       1.634242     -1.068740     -0.063570
H       0.030933     -2.075021     -0.870009
H      -2.371924     -0.363113     -0.591495
H      -0.727621     -1.348041      1.705453
H       1.579195      1.850810      0.162974
H      -1.133525      2.232400      0.055146
