15
Extracted from Q-Chem output
O      -1.616460      1.646186      0.116015
C      -1.524159      0.331014     -0.404220
C      -0.606636     -0.466043      0.500344
C       0.829980      0.053056      0.446972
O       1.375931     -0.099335     -0.832367
C       1.680035     -0.646810      1.472781
O       2.678387     -1.248617      1.176613
H      -1.978184      2.224335     -0.555700
H      -1.115414      0.335673     -1.420032
H      -2.512084     -0.144356     -0.431331
H      -0.616179     -1.515140      0.192292
H      -0.985693     -0.408590      1.525466
H       0.812757      1.118038      0.725528
H       1.337816     -0.581163      2.522927
H       2.182786     -0.620996     -0.726857
