15
Extracted from Q-Chem output
O      -1.424116      1.646153     -0.045017
C      -1.639126      0.303342     -0.416480
C      -0.814329     -0.663613      0.434485
C       0.644688     -0.418952      0.337039
O       1.207864     -0.229409     -0.813561
C       1.621095     -0.307470      1.392402
O       2.822769     -0.173707      0.973489
H      -0.663842      1.984532     -0.521735
H      -1.419300      0.143806     -1.476023
H      -2.698448      0.095575     -0.259086
H      -0.995779     -1.689405      0.097214
H      -1.112773     -0.599136      1.482993
H       0.902885      0.738688      1.329352
H       1.361558     -0.662548      2.396113
H       2.200041     -0.178975     -0.482096
