10
smiles: [C:4](=[C:5]=[C:6]([H:7])[H:10])([H:8])[H:9].[O:1]=[C:2]=[O:3]
O       -1.58115100      -0.99828200       2.25586900
C       -1.91970500      -0.16136700       1.53345200
O       -2.25834800       0.67557500       0.81108700
C        0.77587000       1.32538400      -0.82720400
C        0.82645500       0.06888400      -0.50019300
C        0.87559100      -1.18771500      -0.17333700
H        0.62332400      -1.96017200      -0.89000300
H        1.64114100       1.82769900      -1.24309000
H       -0.13284800       1.90038600      -0.69467700
H        1.17197400      -1.49389200       0.82288100
