16
Extracted from Q-Chem output
O      -2.347992     -1.368902      0.861793
C      -1.512062     -0.770489     -0.087049
C      -1.224683      0.756360      0.041076
C       0.215181      0.387713     -0.144063
C       2.595237      0.706622     -0.335955
N       1.315936      1.088750     -0.264257
C       0.010315     -1.081566     -0.038522
H      -1.985396     -1.213575      1.736758
H      -1.940074     -1.015169     -1.058472
H      -1.486747      1.134219      1.038700
H      -1.707593      1.396008     -0.703359
H       2.826718     -0.344283     -0.287986
H       3.339861      1.462487     -0.508530
H       1.170089      2.089485     -0.312530
H       0.405385     -1.711546     -0.843101
H       0.329433     -1.523118      0.917576
