11
Extracted from Q-Chem output
C      -1.247327     -0.309550      0.160620
N       0.055770     -0.228802      0.300293
C       0.739167      1.096377      0.428912
N       1.955868      0.888143      0.174863
N       2.207923     -0.471072     -0.147558
C       1.070681     -1.054433     -0.174760
H      -1.670833     -1.017520     -0.544497
H      -1.453611      1.438483     -0.508392
H      -1.884793      0.126227      0.916708
H      -0.764295      1.772006     -0.176627
H       0.910898     -2.099565     -0.397893
