14
Extracted from Q-Chem output
C       1.733857     -0.287331      0.566651
C       0.432110      0.436873      0.378116
O       0.674979      1.747237      0.011403
C      -1.347200     -1.396498     -0.118797
C      -1.715550     -0.092344     -0.706568
O      -0.271355     -0.236095     -0.704712
H       2.327642     -0.217575     -0.344992
H       2.285889      0.170638      1.386220
H       1.538332     -1.332809      0.799142
H      -0.220607      0.354687      1.252805
H      -0.117143      2.274664      0.132438
H      -1.272971     -2.104443     -0.956226
H      -2.058594      0.697285     -0.035311
H      -2.069608      0.047531     -1.726935
