14
Extracted from Q-Chem output
C       1.648012     -0.422397      0.649589
C       0.493957      0.513077      0.476777
O       0.964520      1.705051      0.064630
C      -0.795144     -1.076670     -0.291558
C      -1.900970     -0.187483     -0.633486
O      -0.671425      0.389070     -1.028728
H       1.991775     -0.767087     -0.325470
H       2.471447      0.124980      1.117748
H       1.352408     -1.281857      1.240765
H      -0.275617      0.543890      1.239343
H       0.230730      2.311021     -0.071704
H      -0.599267     -1.771082     -1.117666
H      -2.438600      0.356960      0.146744
H      -2.516844     -0.407078     -1.503864
