13
Extracted from Q-Chem output
C       1.916439     -0.036091     -0.453852
O       0.907515      0.593703      0.316238
C      -0.204366     -0.183027      0.550531
C      -1.293583      0.440096      1.156214
O      -2.366467      0.401373     -0.575503
C      -1.308268     -0.166089     -0.903459
O      -0.814118     -0.642802     -1.867240
H       2.225282     -0.980203      0.009438
H       2.763263      0.646718     -0.465044
H       1.582663     -0.228423     -1.474926
H      -0.010351     -1.231777      0.774113
H      -1.325407      1.516692      1.258819
H      -2.047241     -0.137199      1.670003
