14
Extracted from Q-Chem output
C      -1.966760      0.777366      0.187954
C      -0.591258      0.244002      0.403328
C       0.996271     -1.142904      0.617682
C       1.683836     -0.043719     -0.186557
C       0.344954      0.362471     -0.723174
O      -0.330357     -0.932663     -0.658262
H      -2.007714      1.806929      0.555268
H      -2.714325      0.201514      0.735241
H      -2.240924      0.770917     -0.879136
H       0.932127     -1.050188      1.691621
H       1.147542     -2.168533      0.289129
H       2.171227      0.716105      0.423573
H       2.374859     -0.445956     -0.930256
H       0.153202      0.917998     -1.638792
