9
Extracted from Q-Chem output
C      -1.473227      0.489632      0.056213
C       0.527259     -0.699097     -0.088689
O      -0.052410      0.488313      0.059555
N       1.839924     -0.513364     -0.065597
H      -1.823929      0.894290      1.006479
H      -1.841094     -0.526792     -0.079670
H      -1.816991      1.128606     -0.758088
H       2.264996      0.399457      0.046135
H       2.438787     -1.310252     -0.165638
