9
Extracted from Q-Chem output
C      -1.278200      0.268284      0.063541
C       0.430761      0.017468     -0.590015
O       0.214285      1.226498     -0.185257
N       1.492973     -0.576423     -0.022360
H      -1.539594      0.972462      0.853991
H      -1.333890     -0.747881      0.452017
H      -1.849519      0.396271     -0.843337
H       2.086122     -0.052172      0.610369
H       1.799433     -1.475511     -0.342930
