12
Extracted from Q-Chem output
C       0.946005     -0.236437     -0.567649
C       0.238045      1.084172     -0.180541
C      -1.922336     -0.150806     -0.054443
O      -1.292730     -1.239592     -0.482674
C      -0.068234     -1.015448      0.269136
C      -0.715943      0.287917      0.764255
H       1.947575     -0.308907     -0.144158
H       0.982649     -0.505077     -1.622677
H       0.874296      1.791865      0.346053
H      -0.274464      1.607235     -0.988474
H       0.218712     -1.890108      0.848335
H      -0.845784      0.618373      1.789493
