12
Extracted from Q-Chem output
C       1.012754     -0.276916     -0.482450
C       0.258990      0.978123     -0.106863
C      -1.544283      0.328257     -0.186367
O      -1.251756     -0.955815     -0.634478
C      -0.109167     -1.058342      0.225897
C      -0.523541      0.254086      0.940779
H       1.929578     -0.348027      0.104542
H       1.207669     -0.504336     -1.531472
H       0.596869      2.006855     -0.075447
H      -0.866192      1.156698     -0.901348
H       0.049526     -2.049427      0.644399
H      -0.672656      0.512029      1.979466
