12
Extracted from Q-Chem output
N       0.581192      1.578433      0.121299
C       0.558025      0.080979      0.143442
C       1.730661      0.634708      0.174275
O       1.000921     -2.447958      0.196401
N      -0.198296     -2.147351      0.149670
C      -0.487514     -0.821965      0.120460
N      -1.823869     -0.344015      0.064249
H       0.257023      2.057013      0.953666
H       0.314047      2.031293     -0.745018
H       2.792121      0.752543      0.210304
H      -2.300275     -0.677146     -0.762838
H      -2.359652     -0.649027      0.865419
