12
Extracted from Q-Chem output
N       0.622517      1.663999      0.080049
C       0.429232      0.236232      0.113010
C       1.730629      0.299062     -0.009867
O       1.188988     -2.065596      0.097788
N      -0.052760     -1.976323      0.066036
C      -0.557598     -0.717615      0.136703
N      -1.940920     -0.435426      0.116697
H       0.365970      2.163369      0.919584
H       0.405119      2.142317     -0.779445
H       2.648400      0.338465      0.546994
H      -2.385976     -0.812371     -0.708986
H      -2.411326     -0.821075      0.923579
