8
Extracted from Q-Chem output
N      -0.984360      0.949066      0.077301
C      -0.464767     -0.353317      0.447596
N       0.741797     -0.618990      0.197232
C       1.951090     -0.739798      0.069229
N      -2.119730      1.314664      0.238578
H      -0.235878      1.544236     -0.342730
H      -1.153762     -1.027021      0.935175
H       2.297673     -1.175891     -0.871982
