12
Extracted from Q-Chem output
C      -1.919505     -0.622361     -0.130360
C      -0.621004     -0.350890     -0.122395
C       0.043917      0.925930      0.373859
N       1.446979      0.529937      0.344037
C       1.500137     -0.669307     -0.313196
N       0.383796     -1.237016     -0.575093
H      -0.277578      1.203788      1.378393
H      -2.645281      0.092692      0.234775
H      -2.275371     -1.570780     -0.508650
H      -0.150447      1.765879     -0.300632
H       2.177960      1.208407      0.228298
H       2.461330     -1.108971     -0.556098
