19
Extracted from Q-Chem output
C       1.787828      1.331862     -0.531702
C       0.774495      0.335000      0.021378
C       1.339786     -1.082624     -0.015388
C      -0.551790      0.453258     -0.734738
C      -1.684504     -0.379717     -0.142124
C      -2.106844      0.100143      1.205407
O      -2.513602     -0.935920      1.899879
H       1.409208      2.354686     -0.475041
H       2.728943      1.290877      0.020927
H       2.010123      1.115820     -1.581337
H       0.576376      0.598053      1.068348
H       2.292094     -1.134407      0.516602
H       1.518300     -1.401415     -1.047039
H       0.667327     -1.807816      0.446445
H      -0.395513      0.167132     -1.780889
H      -2.593116     -0.220775     -0.743090
H      -1.482341     -1.457431     -0.164765
H      -0.863635      1.501541     -0.735611
H      -2.825855     -0.620396      2.754523
