19
Extracted from Q-Chem output
C       1.493330      1.241270      0.032183
C       0.685518     -0.051049      0.113142
C       1.477398     -1.234692     -0.443482
C      -0.632835      0.087939     -0.603737
C      -1.781185     -0.801097     -0.265951
C      -2.165966      0.486104      0.415157
O      -1.784622      0.425458      1.736347
H       0.947322      2.077532      0.474590
H       2.443958      1.145679      0.560321
H       1.715558      1.498135     -1.007768
H       0.459499     -0.252789      1.164813
H       2.417523     -1.359590      0.098290
H       1.719148     -1.080333     -1.498877
H       0.913476     -2.165483     -0.362522
H      -0.580066      0.407609     -1.644125
H      -2.419579     -1.117226     -1.083090
H      -1.550516     -1.608982      0.423439
H      -1.305708      1.195308     -0.232513
H      -2.028702      1.262254      2.134839
