13
Extracted from Q-Chem output
O      -2.547442     -0.892374      0.333546
C      -1.479567     -0.346250     -0.118395
C      -0.777812      0.980768      0.071843
C       0.499604      0.156541     -0.205506
C       1.844500      0.323834      0.319060
O       1.528171      0.617706     -1.043510
C      -0.327710     -1.063156     -0.480192
H      -0.896940      1.462379      1.041130
H      -0.977678      1.681689     -0.738968
H       2.085484      1.186219      0.933977
H       2.471031     -0.550842      0.468303
H      -0.158556     -1.953169     -1.069284
H      -1.381744     -1.557687      0.467004
