12
Extracted from Q-Chem output
C       1.652365     -0.680496     -0.027694
N       1.149251      0.674572     -0.211575
C      -0.103515      1.098016     -0.204045
N      -1.006830      0.103987      0.007100
C      -2.362800      0.383083      0.045630
O      -3.200029     -0.456395      0.231153
H       1.366614     -1.080458      0.948344
H       2.738788     -0.666203     -0.080193
H       1.285936     -1.351438     -0.808743
H       1.838837      1.387550     -0.365806
H      -0.782937     -0.876753      0.150362
H      -2.563470      1.452510     -0.113536
