12
Extracted from Q-Chem output
C       1.606614     -0.613250      0.023863
N       0.779563      0.580948     -0.004305
C      -0.496045      0.586872     -0.323275
N      -1.254099     -0.438836     -0.647765
C      -2.056482      0.624018      0.187927
O      -2.298135      0.455768      1.371572
H       1.348635     -1.253380      0.871238
H       2.651809     -0.323821      0.109876
H       1.485225     -1.179081     -0.901349
H       1.180902      1.448373      0.303687
H      -1.037698     -1.391184     -0.355924
H      -2.679490      1.176779     -0.518829
