17
Extracted from Q-Chem output
C      -1.331329     -0.304495      0.455514
C      -0.653714     -1.475383     -0.264532
O       0.644188     -1.167608     -0.743355
C       1.516896     -0.571016      0.210795
C       1.445152      0.929857      0.122394
C       0.223370      1.597178     -0.159555
C      -1.073363      1.038466     -0.156699
H      -0.999240     -0.283249      1.501966
H      -2.404863     -0.503910      0.481276
H      -0.619332     -2.355609      0.392003
H      -1.219818     -1.746727     -1.158026
H       1.293050     -0.964607      1.210795
H       2.527123     -0.900397     -0.039849
H       2.362851      1.494988      0.042238
H       0.304431      2.644902     -0.434292
H       0.356425      0.921582     -1.129770
H      -1.880111      1.628189     -0.565944
