17
Extracted from Q-Chem output
C      -2.196171     -0.148650     -0.449418
C      -0.698826     -0.317510     -0.654327
O      -0.156079      0.771357     -1.384879
C       0.035567     -0.539436      0.665365
C       1.549760     -0.648132      0.500325
C       2.413889      0.566085      0.406347
O       1.734079      1.627506      0.787004
H      -2.629969     -1.029358      0.029241
H      -2.402156      0.716763      0.187190
H      -2.693235      0.004822     -1.407532
H      -0.523833     -1.185293     -1.298944
H      -0.118015      1.534936     -0.803152
H      -0.212886      0.268863      1.360865
H      -0.347573     -1.459183      1.115576
H       1.819892     -1.288113     -0.345148
H       2.003186     -1.157626      1.365107
H       2.331350      2.381477      0.758027
