15
smiles: [C:1]([C:2]1=[N+:4]([C-:5]([C:6]#[N:7])[H:15])[C:3]1([H:12])[H:13])([H:8])([H:9])[H:10].[H:11][H:14]
C       -1.67092200      -1.04293800       0.23527300
C       -0.81509100       0.14007500       0.40577900
C       -0.56870200       1.58524700       0.50085400
N        0.40587600       0.49510800       0.44373300
C        1.72165700       0.27601100       0.42015700
C        2.16855200      -1.04875700       0.30237600
N        2.50389400      -2.15016100       0.20366900
H       -2.39461400      -1.12552400       1.04859200
H       -1.05317200      -1.94057600       0.22442200
H       -2.22766900      -0.99221500      -0.70393400
H        0.05286200       0.16954600      -2.63478200
H       -0.61311500       2.22330300      -0.38268100
H       -0.64282400       2.10557900       1.45554700
H        0.71152600       0.16050700      -2.28766500
H        2.38198200       1.11940600       0.51172300
