14
Extracted from Q-Chem output
C      -1.985837      0.566091      0.045061
C      -0.505524      0.378931      0.252285
O      -0.041207     -0.495706     -0.772887
C       1.068328     -1.273604     -0.448564
C       2.271469     -0.478033     -0.124742
N       3.179665      0.160759      0.163727
O       0.100365      1.628948      0.179111
H      -2.381968      1.239068      0.804227
H      -2.501798     -0.391484      0.101755
H      -2.153680      1.005164     -0.938632
H      -0.293825     -0.097406      1.222741
H       1.292951     -1.899429     -1.312479
H       0.872369     -1.932987      0.406724
H       1.022678      1.572288      0.443822
