14
Extracted from Q-Chem output
C      -1.732242      0.777799     -0.052867
C      -0.643439     -0.048389      0.586012
O      -0.265492     -1.079713     -0.385253
C       1.103848     -1.334234     -0.338436
C       1.736113      0.007914     -0.300639
N       2.225238      1.032097     -0.653415
O       0.487362      0.652193      0.925822
H      -2.086061      1.526380      0.656103
H      -2.568003      0.141939     -0.345842
H      -1.342241      1.279424     -0.940023
H      -1.015979     -0.579762      1.473214
H       1.393703     -1.840606     -1.259631
H       1.416288     -1.924073      0.530498
H       1.274492      1.387359      0.111929
