12
Extracted from Q-Chem output
C      -1.500652     -0.310196     -0.499485
C      -0.622910     -0.290530      0.603748
O      -1.049187     -1.079104      1.517352
C       0.603288      0.496411      0.839745
C       1.709742      0.361232     -0.118907
O       0.892394      1.504894     -0.107750
H      -1.585497      0.530488     -1.177009
H      -1.517666     -1.284213     -0.988117
H      -2.020837     -1.005113      0.705918
H       0.824785      0.740308      1.873626
H       1.585730     -0.293371     -0.976169
H       2.722473      0.499324      0.246884
