10
Extracted from Q-Chem output
C      -1.003349     -0.566717     -0.172644
C       0.287077      0.070117      0.367400
C       1.472894     -0.462800     -0.316807
N       2.378832     -0.918268     -0.849891
C       0.244748      1.534557      0.258424
N       0.168057      2.675211      0.185492
H      -1.860304     -0.174284      0.372456
H      -0.959211     -1.646976     -0.042947
H      -1.125384     -0.342434     -1.230992
H       0.396639     -0.168405      1.429509
