18
Extracted from Q-Chem output
C      -2.269151      0.358357     -0.055069
C      -1.230758     -0.756250     -0.063083
C       0.080183     -0.026191      0.297772
C       1.335420     -0.645947     -0.311035
C       2.625666     -0.043574      0.225324
C      -0.126128      1.430849     -0.072611
N      -1.413465      1.544190     -0.245430
H      -3.009526      0.282788     -0.852792
H      -1.832198      2.435287     -0.462852
H      -2.799884      0.433331      0.898584
H      -1.476641     -1.563579      0.626111
H      -1.147329     -1.186429     -1.064719
H       0.204458     -0.008300      1.391403
H       1.321619     -1.725157     -0.124546
H       1.291373     -0.522106     -1.398455
H       2.721365     -0.218241      1.300327
H       3.498996     -0.482279     -0.260858
H       2.641042      1.034303      0.060754
