18
smiles: [C-:6]#[O+:7].[C:1]([C:2]([C@@:3]([C:4]([H:14])([H:15])[H:16])([N:5]([H:17])[H:18])[H:13])([H:11])[H:12])([H:8])([H:9])[H:10]
C       -1.44731100      -0.40629400      -1.18197500
C       -1.13588800       0.41179100       0.06285300
C        0.33715400       0.38712400       0.46698600
C        0.61425700       1.38231000       1.59277300
N        0.72995100      -0.98402800       0.78771600
C        1.63999600      -2.29874200      -2.03311000
O        2.02552900      -1.28901200      -2.33952700
H       -0.91659700      -0.00991700      -2.05137800
H       -1.13937600      -1.44364400      -1.05020500
H       -2.51504000      -0.38771100      -1.40878900
H       -1.43770100       1.45242000      -0.09009400
H       -1.73110400       0.04555400       0.90901300
H        0.92982700       0.68108400      -0.40752500
H        0.36599800       2.40456500       1.29668500
H        0.01818200       1.13560100       2.47690200
H        1.66752100       1.36290200       1.88278000
H        0.25314700      -1.29530900       1.62633600
H        1.72220700      -1.03803200       0.97650800
