12
Extracted from Q-Chem output
O       1.383999     -0.809709     -1.263667
C       0.248936     -0.752282     -0.444539
C       0.533746     -0.277425      0.991028
C      -1.382770      0.491501      0.680154
O      -0.079154      1.331640      0.328228
C      -0.693410      0.401400     -0.615316
H       1.753047      0.073743     -1.347475
H      -0.228661     -1.730725     -0.489348
H       0.188596     -0.845509      1.843231
H       1.523589      0.154045      1.142388
H      -2.219740      1.195436      0.678704
H      -1.009395      0.844885     -1.554920
