10
Extracted from Q-Chem output
O      -1.430079     -1.302706     -0.051213
C      -0.171241     -0.988946     -0.469798
C       0.298797      1.554599      0.498458
O       1.226528      1.193543     -0.566047
C       0.446824      0.217693     -0.003930
O       0.880997     -0.974861      0.531004
H      -1.564427     -2.250540     -0.124606
H       0.149031     -1.439325     -1.406827
H       0.776102      1.815993      1.436900
H      -0.536704      2.172962      0.188316
