12
Extracted from Q-Chem output
O       2.547674     -0.491186      1.881828
C       1.833578     -0.076111      1.026459
C      -0.213975      0.540779      0.085329
C      -0.429082     -0.311834     -1.123842
C      -1.552713     -0.050444     -0.157915
O       0.501842      0.004623      1.175300
H       2.183725      0.277028      0.040658
H      -0.081960      1.610080     -0.034593
H       0.010493     -1.300654     -1.111469
H      -0.443694      0.171068     -2.091527
H      -1.841198     -0.861822      0.496199
H      -2.354347      0.612441     -0.452669
