12
Extracted from Q-Chem output
O       1.588941     -1.177216      0.799625
C       1.375226      0.034667      0.748399
C       0.315556      0.677706     -0.193030
C      -0.393979     -0.397117     -1.052832
C      -1.311224     -0.301039      0.028389
O       0.086021      0.628610      1.281010
H       2.119945      0.816198      0.960567
H       0.298970      1.692634     -0.574801
H       0.203811     -1.304972     -1.106625
H      -0.697261      0.051043     -1.992874
H      -1.332966     -1.044084      0.809635
H      -2.092697      0.447539      0.026296
