16
smiles: [C-:6]#[O+:7].[C:1]([C:2](/[C:3](=[N:4]/[C:5]([H:14])([H:15])[H:16])[H:13])([H:11])[H:12])([H:8])([H:9])[H:10]
C        2.24083600      -0.50009200      -0.18127100
C        1.15068000       0.23748900      -0.95635300
C       -0.20913300      -0.32063700      -0.67658600
N       -1.13974400       0.36872500      -0.18393000
C       -2.41133200      -0.27287900       0.05532700
C        0.09526600       1.90646000       2.28506600
O       -0.88014800       1.87496200       2.84152200
H        2.23595100      -1.56907200      -0.40803600
H        2.09693000      -0.38610700       0.89480900
H        3.22879800      -0.11262900      -0.43325100
H        1.14258900       1.29974300      -0.70879400
H        1.34630300       0.14877100      -2.03061300
H       -0.35640200      -1.38786300      -0.91435600
H       -2.66308900      -0.18443300       1.11420400
H       -3.18925900       0.25241100      -0.50264400
H       -2.42673800      -1.33492000      -0.22675300
