14
Extracted from Q-Chem output
C       1.731194     -0.966522     -0.783185
C       1.162793     -0.421802      0.451629
C      -0.286266     -0.718578      0.570036
C      -0.961938      0.457781     -0.130669
O      -2.212033      0.861207      0.384940
C      -1.113896      1.749648      0.530338
H       1.043908     -1.234804     -1.599419
H       2.116231     -1.918886     -0.368180
H       2.612066     -0.437276     -1.146355
H      -0.613814     -1.642948      0.071274
H      -0.627950     -0.715676      1.606121
H      -0.912840      0.439907     -1.217046
H      -0.740715      1.864834      1.543364
H      -1.167493      2.657100     -0.062908
