14
Extracted from Q-Chem output
C       1.444110     -0.510027     -0.645938
C       0.633211     -0.250780      0.594668
C      -0.616954     -1.058812      0.667171
C      -1.066632      0.117512     -0.116908
O      -1.842303      1.137141      0.421256
C      -0.485712      1.514805      0.380016
H       0.925219     -0.962070     -1.506172
H       2.206464     -1.226574     -0.321512
H       1.986317      0.376135     -0.979426
H      -0.661208     -1.974158      0.076649
H      -1.076094     -1.166739      1.646715
H      -1.114604      0.021830     -1.196804
H      -0.096747      1.799324      1.343584
H      -0.212467      2.160394     -0.452001
