19
Extracted from Q-Chem output
C       2.378376      0.552137     -0.367867
C       1.452335     -0.199307      0.564872
O       2.018228     -0.096902      1.862146
C       0.024067      0.349212      0.575807
C      -0.663181      0.258937     -0.808621
C      -2.067553      0.590007     -0.499771
C      -2.906984     -0.606186     -0.384825
H       2.071916      0.437599     -1.408061
H       3.393234      0.167513     -0.266254
H       2.387084      1.615233     -0.117819
H       1.418958     -1.255686      0.260291
H       1.460480     -0.569070      2.483300
H       0.039326      1.385589      0.917402
H      -0.497135     -0.749656     -1.223122
H      -0.209079      1.005856     -1.462151
H      -0.552917     -0.221221      1.313608
H      -2.404510     -1.571477     -0.220406
H      -3.306608     -0.626268     -1.417046
H      -3.779126     -0.486123      0.257897
