19
Extracted from Q-Chem output
C       2.312061      0.129506     -0.262398
C       1.025306     -0.247054      0.446186
O       1.349889     -0.423548      1.815502
C      -0.032566      0.824554      0.272024
C      -0.782798      0.894026     -1.050977
C      -1.866371      0.535091     -0.109416
C      -2.151800     -0.944356     -0.085182
H       2.143179      0.260903     -1.331690
H       3.059123     -0.650584     -0.116227
H       2.706760      1.061537      0.146892
H       0.651284     -1.189256      0.026481
H       0.583549     -0.771232      2.275763
H       0.285015      1.805448      0.622614
H      -0.458713      0.130096     -1.763040
H      -0.814822      1.880450     -1.503343
H      -0.937595      0.686377      1.025895
H      -1.375307     -1.617261     -0.475517
H      -3.014635     -1.040278     -0.753347
H      -2.486998     -1.296532      0.891492
