10
Extracted from Q-Chem output
O       1.980931     -0.634341     -0.251240
C       0.878782      0.051219      0.033498
C       0.412297      1.292572     -0.058525
N      -0.811548      0.917565      0.622456
N      -1.853702      0.429211     -0.283509
C      -1.372588     -0.745556     -0.174392
N      -0.279574     -0.475511      0.703564
H       2.037947     -1.398407      0.330640
H       0.699702      2.272715     -0.391722
H      -1.716015     -1.700653     -0.546173
