10
Extracted from Q-Chem output
O       2.031600     -0.425140     -0.074292
C       0.801182      0.040993      0.013711
C       0.354144      1.292893     -0.172329
N      -0.859380      1.043115      0.535664
N      -1.726173      0.433885     -0.312733
C      -1.369615     -0.783687     -0.102665
N      -0.162668     -0.869316      0.547077
H       2.002996     -1.330323      0.265617
H       0.836225      2.249330     -0.268735
H      -1.922870     -1.654292     -0.432732
