16
smiles: [C:1]([C:2]([C:3]([H:11])([H:12])[H:13])([H:10])[H:16])([H:7])([H:8])[H:9].[C:4](=[O:5])=[C:6]([H:14])[H:15]
C       -1.27965600      -0.09828600      -0.75628300
C       -0.82479100      -0.81599900       0.50827400
C       -1.12520900      -0.02355500       1.77413500
C        2.16705900       1.06926600      -0.48735400
O        1.90719400       1.80266300       0.36661100
C        2.45921800       0.24001000      -1.45520200
H       -1.05210700      -0.67923200      -1.65209100
H       -0.78716800       0.87255000      -0.85439600
H       -2.35791300       0.08025200      -0.74006300
H       -1.31050400      -1.79473300       0.56632600
H       -0.62783100       0.94959600       1.75455800
H       -0.78747400      -0.55055200       2.66851800
H       -2.19791300       0.15796300       1.87964500
H        1.65914700      -0.23667200      -1.99932600
H        3.49333100       0.04424200      -1.69127100
H        0.24974700      -1.01359700       0.44805100
