12
Extracted from Q-Chem output
O       2.735275      0.310736     -0.199276
C       1.629324     -0.411253      0.124121
C       0.412764      0.069593      0.250097
C      -0.606362      1.114511      0.200541
N      -0.906346     -0.275871      0.552519
C      -1.730472     -1.082741     -0.220128
O      -2.751904     -0.714066     -0.726766
H       1.848638     -1.459475      0.276634
H       2.492619      1.231452     -0.325838
H      -0.964911      1.450216     -0.768011
H      -0.701511      1.827510      1.011616
H      -1.370622     -2.124047     -0.267570
