12
Extracted from Q-Chem output
O       2.591736      0.171870     -0.145708
C       1.438585     -0.281353     -0.397098
C       0.559497      0.271261      0.582689
C      -0.567621      1.169747      0.078842
N      -0.835040     -0.070301      0.716374
C      -1.478495     -1.126433      0.105616
O      -2.382583     -1.018706     -0.679463
H       1.300876     -0.983302     -1.221076
H       2.047118      0.662373      0.801444
H      -0.783483      1.226927     -0.984100
H      -0.764145      2.066550      0.652902
H      -1.109863     -2.101670      0.467561
