17
Extracted from Q-Chem output
O       2.928435      0.120381     -0.261968
C       1.674936     -0.363705      0.177273
C       0.690959     -0.107084     -0.949480
C      -0.994172     -1.074862      0.021412
C      -1.718234      0.229896      0.248561
C      -0.715121      1.379840      0.176765
O       0.072092      1.088680     -0.973250
H       2.988560     -0.086099     -1.200653
H       1.485483      0.141105      1.130626
H       1.710452     -1.443887      0.367145
H      -0.199252     -1.028434     -1.003170
H      -0.492393     -1.479220      0.895908
H      -1.617653     -1.846260     -0.433477
H      -2.218287      0.228687      1.220019
H      -2.479843      0.376600     -0.518716
H      -0.101688      1.438336      1.079625
H      -1.190332      2.345771      0.011999
