11
Extracted from Q-Chem output
C       2.030275     -1.055456     -0.243346
C       1.053575     -0.552698      0.246417
C       0.253244      1.057226      0.714186
C      -0.322926     -0.283455      0.848612
N      -1.387840     -0.388941     -0.076814
N      -1.421377      0.670532     -0.859435
C      -0.480870      1.493469     -0.452410
H       2.920088     -1.459006     -0.666891
H      -0.427219     -0.809684      1.791090
H      -1.919580     -1.202133     -0.332799
H      -0.364615      2.436737     -0.965205
