13
Extracted from Q-Chem output
C       1.798063     -0.026191     -0.083401
C       0.364989      0.459517     -0.227481
C      -0.607133     -0.575108      0.274379
N      -1.769938     -0.681922     -0.220844
C      -2.813183     -0.853621     -0.822233
O       0.178535      1.719893      0.406403
H       2.489225      0.739202     -0.435637
H       2.029783     -0.240526      0.964420
H       1.959522     -0.940149     -0.657744
H       0.141660      0.651871     -1.279328
H      -0.343873     -1.236419      1.094383
H       0.313484      1.609621      1.350902
H      -3.673769     -0.274055     -0.478912
