13
Extracted from Q-Chem output
C       1.704654      0.294276      0.074834
C       0.306032      0.005475     -0.377685
C      -0.482434     -1.116390      0.210688
N      -1.798213     -0.842032     -0.122569
C      -1.901889      0.424586     -0.251613
O      -0.656983      1.031414      0.195623
H       2.067651      1.237788     -0.332607
H       1.774504      0.313644      1.162832
H       2.351350     -0.505888     -0.289671
H       0.171413      0.125242     -1.465047
H      -0.152871     -2.146467      0.188602
H      -0.547514      0.364290      1.106560
H      -2.770199      1.059847     -0.199895
