17
Extracted from Q-Chem output
C      -2.746486      0.039042     -0.484671
C      -1.415956      0.168749     -1.209178
N      -0.320677      0.211007     -0.263358
C       0.571578     -0.675267     -0.327109
C       1.730377     -0.672009      0.597879
C       2.600305      0.534470      0.616933
N       1.713489      0.242215      1.726158
H      -3.575376      0.064404     -1.194138
H      -2.875449      0.854394      0.228251
H      -2.794979     -0.901975      0.066292
H      -1.293252     -0.651236     -1.932222
H      -1.399939      1.105816     -1.773005
H       0.537683     -1.482259     -1.071879
H       2.178399     -1.641374      0.788196
H       3.658792      0.424404      0.821924
H       2.331358      1.334946     -0.063887
H       0.870598      0.805539      1.644495
