14
Extracted from Q-Chem output
C      -1.255967     -0.854381     -0.505577
C      -0.287642      0.311475     -0.311379
C      -0.233125      0.743103      1.149832
C       1.082841     -0.040883     -0.853116
C       2.183425      0.005642     -0.147333
O       3.160537      0.048870      0.475490
H      -0.937410     -1.719228      0.081219
H      -2.264001     -0.577002     -0.188405
H      -1.305190     -1.160056     -1.552574
H      -0.660462      1.159237     -0.897614
H      -1.225751      1.029847      1.500423
H       0.431431      1.597737      1.293153
H       1.201040     -0.364927     -1.879982
H       0.120642     -0.073546      1.785353
