14
Extracted from Q-Chem output
C      -1.350012     -0.909049     -0.500538
C      -0.445238      0.309050     -0.425355
C      -0.251600      0.918476      0.891178
C       1.012752      0.146514     -0.725515
C       1.769344     -0.123688      0.415286
O       2.945237     -0.161554      0.688501
H      -1.005854     -1.675471      0.197038
H      -2.381864     -0.649749     -0.251090
H      -1.333982     -1.340728     -1.501902
H      -0.791177      1.092936     -1.112855
H      -0.695576      0.525079      1.800246
H       0.109885      1.936285      0.937727
H       1.450945      0.327011     -1.701572
H       0.976708     -0.339205      1.259230
