15
Extracted from Q-Chem output
C      -1.595855      0.112480     -1.215333
C      -0.891152     -0.305144      0.059655
C      -0.149017      0.626780      0.790051
C       1.993335      0.599472      0.223051
O       2.418251      1.679886      0.135168
C       1.983997     -0.778186      0.202750
O       1.263671     -1.416580     -0.648976
H      -2.541800      0.615801     -1.001564
H      -1.813493     -0.747310     -1.850123
H      -0.974932      0.799082     -1.794592
H       0.115771     -1.063236     -0.390512
H      -1.394857     -1.074671      0.644369
H      -0.059588      1.646458      0.431490
H      -0.009455      0.505458      1.857239
H       2.280937     -1.230043      1.156621
