15
smiles: [C:1](/[C:2](=[C:6](\[N:7]([H:14])[H:15])[H:13])[H:11])([H:8])([H:9])[H:10].[O:3]=[C:4]=[N:5][H:12]
C        1.50627000       0.32789000       1.02519100
C        1.28748300       0.28506100      -0.45818600
O       -3.15192900      -1.47461000       0.53036700
C       -2.05651700      -1.72715900       0.24495300
N       -0.94653500      -2.12217700      -0.02001500
C        0.19868600       0.74385700      -1.07317900
N       -0.87597800       1.38444000      -0.46790000
H        0.59050800       0.10484500       1.58286100
H        1.85825600       1.30825800       1.36265300
H        2.25089600      -0.40659300       1.33297100
H        2.07459200      -0.12329700      -1.07905500
H       -0.18780000      -1.55390900      -0.34790800
H        0.12178400       0.68318300      -2.15340800
H       -1.75965400       1.27904400      -0.93532500
H       -0.95381400       1.26237800       0.52861700
