16
smiles: [C:1]([C:2](=[C:3]([H:11])[H:12])[H:10])([H:7])([H:8])[H:9].[C:4]([C:5]([H:14])([H:15])[H:16])(=[O:6])[H:13]
C        1.69740200       0.71459200       0.36026200
C        1.45922200      -0.69054400      -0.09262700
C        1.00359600      -1.67060200       0.67200400
C       -1.50076700       0.20275600      -1.26739500
C       -2.02388900       0.64973300       0.06412200
O       -0.89288500       0.90143100      -2.03028300
H        1.09328900       1.41753700      -0.21919200
H        1.45254600       0.84076500       1.41581900
H        2.74269600       0.99873100       0.21359400
H        1.68384100      -0.90208500      -1.13572300
H        0.85235100      -2.66992200       0.28230900
H        0.76552800      -1.50830100       1.71846400
H       -1.71000200      -0.85680100      -1.52738200
H       -1.57906500       0.03556900       0.85172300
H       -1.79656200       1.69993800       0.23649200
H       -3.10370900       0.48511800       0.10632700
