11
Extracted from Q-Chem output
O       1.931003      0.133607      0.057913
C       0.634981     -0.136270      0.488113
C      -0.140950     -1.236682     -0.194051
C      -1.354626     -0.872365     -0.693219
C      -1.345990      0.544447     -0.361174
N      -0.282537      0.985396      0.264298
H       1.971158     -0.028886     -0.888719
H       0.283853     -2.236718     -0.197263
H       0.684719     -0.307793      1.568904
H      -2.137604      1.257648     -0.581834
H      -0.104494      1.927456      0.572554
