11
Extracted from Q-Chem output
O       1.996414      0.279559      0.213527
C       0.666408      0.035357      0.133874
C      -0.106609     -1.164420     -0.187045
C      -1.479755     -0.842594     -0.393898
C      -1.471109      0.526482     -0.218759
N      -0.226911      1.052354      0.078875
H       2.448777     -0.201399     -0.483713
H       0.377477     -2.134833     -0.227786
H       0.233371     -0.743588      1.057517
H      -2.303471      1.219149     -0.248132
H       0.004920      2.003774      0.311061
