13
Extracted from Q-Chem output
O       0.315330     -1.416755     -0.626596
C       1.425062     -0.662600     -0.470737
N       1.340931      0.462765      0.202007
C       0.246102      0.964613      0.816897
C      -1.012207      0.187759      0.623777
C      -0.891524     -0.649669     -0.652143
H       2.357885     -1.038181     -0.852275
H       2.190637      1.002475      0.255190
H       0.282728      2.008050      1.083037
H      -1.228593     -0.495627      1.453504
H      -1.873668      0.856669      0.536907
H      -0.887776     -0.004848     -1.536441
H      -1.694041     -1.378055     -0.750290
