17
Extracted from Q-Chem output
C       2.226960      0.537187     -0.345519
C       1.451896     -0.433669      0.522337
O       0.403211      0.186810      1.296239
C      -0.474701     -0.813727      0.744564
C      -1.809031     -0.303088      0.235343
C      -1.665827      0.739516     -0.865019
C       0.541665     -1.393358     -0.178537
H       1.561889      1.047104     -1.042789
H       2.706224      1.286089      0.285209
H       2.987643     -0.000371     -0.911423
H       2.136632     -1.006450      1.167003
H      -0.641942     -1.625315      1.479944
H      -2.358525      0.111557      1.084403
H      -2.369398     -1.169522     -0.124421
H      -2.642926      1.099952     -1.189015
H      -1.090257      1.596910     -0.513843
H      -1.159984      0.317006     -1.736799
