13
Extracted from Q-Chem output
N      -1.551064      0.827452     -0.241811
C      -1.342700     -0.499604     -0.107816
O      -2.117189     -1.352212     -0.486953
C      -0.027836     -0.866781      0.586945
O       1.195060      1.679863      0.431586
C       1.668351      0.738406     -0.173199
N       1.150714     -0.504077     -0.177054
H      -2.376381      1.136428     -0.723250
H      -0.854188      1.491020      0.062641
H      -0.033360     -1.943286      0.737879
H       0.024640     -0.369243      1.557522
H       2.585060      0.826474     -0.778604
H       1.573964     -1.195800     -0.769360
