13
Extracted from Q-Chem output
N      -1.569796      0.937301     -0.283169
C      -1.356935     -0.346361      0.052804
O      -2.122521     -1.259116     -0.181765
C      -0.127678     -0.651044      0.860245
O       1.005052      1.107273      0.710482
C       1.688981      0.633584     -0.237986
N       1.423531     -0.554968     -0.633547
H      -2.388567      1.162963     -0.817947
H      -0.870640      1.629057     -0.074258
H       0.135979     -1.693173      0.807760
H      -0.126229     -0.248758      1.865045
H       2.470503      1.253865     -0.688611
H       1.934719     -0.957552     -1.408980
