15
smiles: [C:1]([C@@:2]1([H:10])[N:3]([H:11])[C:4]1=[C:5]([H:13])[H:14])([H:7])([H:8])[H:9].[O:6]([H:12])[H:15]
C       -2.31293300       0.41049600       0.07950800
C       -0.89282600       0.10334900      -0.30326800
N        0.09157500       1.21295300      -0.15714600
C        0.20242100       0.07885800       0.64355100
C        0.92742400      -0.49034800       1.58143000
O        2.21024700      -0.46402200      -1.58574200
H       -2.85267000      -0.50941400       0.31328100
H       -2.33433100       1.05623800       0.95724200
H       -2.83367200       0.91467600      -0.73691500
H       -0.77005300      -0.53535300      -1.17582700
H        0.77721600       1.27295400      -0.89986300
H        2.07313400      -0.81737100      -0.70583800
H        0.63028100      -1.44359200       1.99665700
H        1.82426000      -0.01780400       1.96138500
H        3.15416000      -0.52180500      -1.73917300
