15
Extracted from Q-Chem output
C      -2.040761      0.248545      0.426565
C      -1.016329      0.144163     -0.669520
N      -0.089732      1.286299     -0.801971
C       0.413302     -0.026463     -0.409828
C       1.102125     -0.255683      0.814106
O       2.410648     -1.197533      0.051235
H      -2.386014     -0.741431      0.736051
H      -1.612267      0.752139      1.295211
H      -2.911573      0.820258      0.097307
H      -1.395533     -0.276128     -1.599032
H       0.108659      1.454692     -1.781708
H       1.681601     -0.894929     -0.749412
H       0.767701     -1.031523      1.494813
H       1.666008      0.548209      1.281429
H       3.211213     -0.660794     -0.025418
