15
Extracted from Q-Chem output
C       1.511412      0.758515     -0.226673
C       0.340924      0.067971      0.358053
O       0.557011     -0.550559      1.601239
C      -1.123329      0.758237      0.437859
C      -1.648772     -0.302239     -0.414367
O      -1.005615     -0.406452     -1.589010
C       0.081544     -0.933093     -0.772045
H       1.260192      1.332512     -1.116476
H       2.213280      1.293439      0.418036
H       1.290958     -0.564652     -1.128166
H       1.443474     -0.920773      1.581116
H      -1.521971      0.776696      1.447823
H      -1.122961      1.740851     -0.023129
H      -2.268979     -1.132950     -0.088306
H      -0.025412     -1.989064     -0.511826
