16
Extracted from Q-Chem output
C       1.785008     -0.702857     -0.104296
C       0.664171      1.378261     -0.340663
C       0.561275      0.213256      0.467836
O       0.526485      0.224278      1.741121
C      -0.733955     -0.579783     -0.184538
C      -2.048320      0.037753      0.246184
H       1.782550     -0.834969     -1.184750
H       2.721937     -0.265871      0.230803
H       1.625809     -1.650250      0.405542
H       0.689398      1.298445     -1.421233
H       0.717056      2.372286      0.097505
H      -0.608055     -1.565982      0.262069
H      -0.647667     -0.666178     -1.268282
H      -2.249931      0.977902     -0.270130
H      -2.868442     -0.649208      0.025599
H      -2.034386      0.222739      1.319664
