14
smiles: [C:3]1([H:7])([H:8])[C:4]([H:9])([H:10])[C:5]1([H:11])[H:12].[O:1]=[C:2]=[C:6]([H:13])[H:14]
O        0.11993100       2.15801300       1.80111700
C        0.69792400       2.20564400       0.80200100
C       -0.97669200      -0.57600200      -0.47219000
C       -1.01178300      -2.00866300      -0.03367800
C        0.18611800      -1.16081100       0.27074900
C        1.35153900       2.25810700      -0.32931000
H       -1.60874800       0.13022500       0.04977100
H       -0.85324700      -0.36993200      -1.52724400
H       -1.66900900      -2.27327600       0.78412500
H       -0.91150400      -2.77487500      -0.79110400
H        1.09696200      -1.35223900      -0.28117900
H        0.34327300      -0.85174800       1.29573500
H        1.96809000       3.11618300      -0.54582500
H        1.26179300       1.44087200      -1.02755500
