15
Extracted from Q-Chem output
C      -2.012251      0.653907      0.256962
C      -1.089625     -0.187803     -0.562849
N       0.008580      0.330914     -1.158516
C       0.922329     -0.561581     -0.693085
C       1.308640     -0.630880      0.746302
O       2.636390     -0.154722      0.970645
H      -1.628878      0.841582      1.265024
H      -2.139561      1.635994     -0.214797
H      -2.992520      0.186962      0.357171
H      -1.381880     -1.185334     -0.856081
H       0.103256      1.139330     -1.758557
H       1.578268     -1.071713     -1.400551
H       1.325105     -1.658253      1.115467
H       0.584620     -0.072229      1.350403
H       2.690729      0.730765      0.604880
