11
Extracted from Q-Chem output
C       1.663111     -0.378850      0.424694
C       2.520705      0.503733     -0.289645
C       1.737097     -0.060961     -1.410020
C       0.693838      0.069415     -0.452707
C      -0.662046      0.616334     -0.407456
C      -1.753764     -0.208452      0.126549
O      -1.209630      0.854293      0.874398
H       1.774622     -1.155615      1.165979
H      -0.890985      1.361185     -1.163363
H      -1.532402     -1.205100      0.496684
H      -2.756828     -0.053574     -0.258697
