15
Extracted from Q-Chem output
C      -1.347890      1.384399     -0.125709
C      -0.325787      0.332109      0.102306
C      -0.277766     -0.726454      1.135858
O       1.156778     -0.844279      1.224355
C       1.055992      0.385756     -0.186735
C       1.057498     -0.658605     -1.182780
O       1.106652     -1.915051     -0.882153
H      -0.897023      2.265566     -0.588818
H      -2.158703      1.054138     -0.780097
H      -1.804181      1.687109      0.823396
H      -0.708932     -1.709409      0.887805
H      -0.744825     -0.388935      2.070637
H       1.573625      1.324605     -0.424506
H       1.044591     -0.391198     -2.235039
H       1.269973     -1.799749      0.161482
