14
Extracted from Q-Chem output
C       2.518515     -0.069794     -0.050094
C       1.083175      0.389149     -0.016694
C       0.021378     -0.588061     -0.113318
C      -1.174596      0.005600      0.081312
N      -2.554352     -0.369805      0.073499
C      -1.609094      1.250022      0.411143
O       0.804974      1.578416      0.132144
H       3.170813      0.770844     -0.277068
H       2.663926     -0.865977     -0.781918
H       2.789934     -0.466965      0.931235
H       0.172991     -1.648590     -0.247028
H      -2.922732     -0.790342      0.909051
H      -2.904119     -0.756119     -0.789499
H      -1.876335      1.984664     -0.342946
