14
smiles: [C:4]([H:11])[H:12].[O:1]([C:2](/[C:3](=[C:5](\[O:6][H:14])[H:13])[H:10])([H:8])[H:9])[H:7]
O        2.35437300      -1.11821200      -0.79081100
C        1.33086600      -0.14136700      -0.65932100
C        0.79637300      -0.07366700       0.73637800
C       -2.16618100       1.16566200      -0.54775200
C       -0.47413900      -0.24605900       1.07532900
O       -1.45759300      -0.47539700       0.16194200
H        1.99331800      -1.95848000      -0.50126400
H        0.51856700      -0.32574200      -1.36906400
H        1.80069400       0.80559200      -0.93359000
H        1.50696600       0.10857400       1.53381700
H       -1.55852100       1.11690200      -1.47531300
H       -1.58420200       1.87762700       0.07385400
H       -0.79392100      -0.20066400       2.11253400
H       -2.29217400      -0.60529600       0.61147000
