16
Extracted from Q-Chem output
C       2.722492      0.630496     -0.375937
C      -0.803893      1.551924      0.145064
N       1.802667     -0.209025     -0.553315
C       0.822284     -0.350065      0.505232
C      -0.512318      0.174837      0.012356
C      -1.799322     -0.458810      0.656369
C      -1.422349     -0.786797     -0.729232
H       2.817105      1.231198      0.536337
H       3.463576      0.781617     -1.158870
H      -1.750550      1.747584     -0.389587
H       1.101053      0.202316      1.411462
H       0.747283     -1.414596      0.746945
H      -2.656099      0.172460      0.846496
H      -1.559220     -1.145406      1.457582
H      -0.997450     -1.763069     -0.925866
H      -2.024834     -0.375439     -1.527604
