16
Extracted from Q-Chem output
C       2.098225      1.012028     -0.278895
C      -0.018834      1.307652     -0.184954
N       1.768250     -0.191592     -0.622999
C       0.939017     -0.813355      0.393744
C      -0.366256     -0.065933      0.104713
C      -1.707952     -0.228413      0.804249
C      -1.507313     -0.809045     -0.550666
H       2.229890      1.329091      0.755823
H       2.544730      1.659088     -1.032233
H      -0.700279      1.765055     -0.923502
H       1.295075     -0.629683      1.416078
H       0.844533     -1.886808      0.233044
H      -2.341599      0.643164      0.914362
H      -1.704848     -0.884388      1.665611
H      -1.406346     -1.884373     -0.637603
H      -1.999148     -0.325858     -1.385616
