12
Extracted from Q-Chem output
O       1.823240      0.041446     -0.746100
C       0.933649      0.246907      0.319370
C      -0.414407      0.881003      0.007656
C      -1.172035     -0.082998     -0.771625
C       0.112301     -0.949631      0.758746
O      -1.104449      0.089911      1.026390
H       1.647383     -0.842893     -1.080534
H       1.466397      0.810692      1.094782
H      -0.640269      1.943134     -0.010789
H      -2.239674      0.096548     -0.838047
H      -0.760653     -0.810229     -1.450474
H       0.352888     -1.413876      1.716756
