10
Extracted from Q-Chem output
O      -3.339459     -0.459242      0.165214
C      -2.335786      0.105500      0.264984
C       0.813343     -0.840780     -0.373271
C       0.607819      0.546874      0.135367
C       1.837977      0.243972     -0.086502
C      -1.536331      1.166761      0.559605
N      -0.317894      1.473935      0.550122
H       0.577733     -1.081522     -1.409423
H       0.738238     -1.688381      0.307081
H       2.886198      0.484550     -0.099354
