10
Extracted from Q-Chem output
O      -2.523675     -0.887039     -0.169251
C      -1.654044     -0.143973      0.017143
C       0.127574     -0.665946     -0.195731
C       0.668974      0.668830      0.172999
C       1.858046      0.308260      0.026635
C      -1.492043      1.326674      0.437343
N      -0.307515      1.704080      0.506072
H       0.145002     -0.973212     -1.236132
H       0.207359     -1.482289      0.514255
H       2.909213      0.134660     -0.062413
