8
Extracted from Q-Chem output
N       1.136525     -0.516875     -0.184137
C      -0.171590     -0.040681     -0.021247
O      -0.317867      1.301085      0.257501
N      -0.792153      0.763823     -1.034401
H       1.166445     -1.496894     -0.421284
H       1.647693      0.031052     -0.862372
H      -0.800099     -0.716983      0.557678
H      -1.806318      0.710336     -0.924828
