8
Extracted from Q-Chem output
N       1.036340     -0.505000     -0.579589
C      -0.153770      0.193881     -0.232830
O       0.011798      1.356292      0.330679
N      -1.128530      0.337265     -1.206234
H       1.100278     -1.454392     -0.252214
H       1.866413      0.034786     -0.383898
H      -0.763225     -0.603842      0.372780
H      -1.945763      0.653319     -0.679240
