17
Extracted from Q-Chem output
O       1.650929      0.849089      0.203602
C       1.572368     -0.571004      0.200964
C       0.351680     -0.872074     -0.729230
C      -0.930327     -1.001559      0.100985
C      -1.423725      0.444553      0.366132
C      -0.350422      1.466426      0.260920
O       0.241081      0.214617     -1.554476
H       1.402994      0.974406     -0.772629
H       1.455169     -0.924910      1.226341
H       2.500856     -0.970122     -0.216757
H       0.531339     -1.808565     -1.275071
H      -0.764944     -1.556215      1.028469
H      -1.704347     -1.524041     -0.460685
H      -1.884483      0.511477      1.354979
H      -2.165193      0.682513     -0.394935
H       0.054892      1.853108      1.185703
H      -0.400860      2.181483     -0.546198
