9
Extracted from Q-Chem output
O      -2.228206     -0.974511     -0.272753
C      -1.104520     -0.593823     -0.151796
C      -0.707128      0.807525      0.089606
N       0.505000      1.176656      0.211173
C       1.447688      0.164567      0.102541
N       1.241283     -1.077304     -0.101129
O      -0.070275     -1.476773     -0.232898
H      -1.511767      1.533952      0.162906
H       2.487968      0.445996      0.201444
