11
Extracted from Q-Chem output
O      -1.488855      0.456029     -0.790257
C      -0.896613     -0.229379      0.297870
C       0.445313     -0.755434     -0.168278
C       1.538503      0.263559     -0.221026
O       1.345937      1.391562      0.391898
H      -2.159137      1.053027     -0.457430
H      -1.528057     -1.065662      0.620467
H      -0.752587      0.440116      1.152765
H       0.361335     -1.226118     -1.150802
H       0.821639     -1.537456      0.503305
H       2.362268      1.206275     -0.142285
