17
Extracted from Q-Chem output
C       2.777617      0.186701     -0.247624
O       1.549388     -0.001382      0.460219
C       0.468224     -0.165847     -0.213649
C      -0.804618     -0.466269      0.503503
O      -1.061584      0.341254      1.514953
C      -1.992941     -0.684222     -0.463941
O      -2.688885      0.513983     -0.655841
H       3.573511     -0.108457      0.429666
H       2.873728      1.242716     -0.501222
H       2.796953     -0.426189     -1.150615
H      -0.140689      1.741875     -0.156829
H       0.591640     -0.389795     -1.280225
H      -0.485012     -1.505486      0.816325
H      -0.494153      1.554995      0.553535
H      -2.641884     -1.449573     -0.019058
H      -1.665491     -1.053286     -1.442710
H      -2.655227      0.949753      0.208320
