17
smiles: [C:1]([H:8])([H:9])([H:10])[H:14].[C:2]([C:3](=[O:4])[H:13])([C:5]([C:6](=[O:7])[H:17])([H:15])[H:16])([H:11])[H:12]
C       -2.21642100      -1.33234800      -1.32330700
C        0.09156900       0.80768300       0.65506700
C        0.18869000      -0.48418100       1.42279800
O        0.73436800      -1.47327000       1.01804600
C        0.93084100       0.81309900      -0.60579300
C        2.40603300       0.93869300      -0.33115500
O        2.87681500       1.16739200       0.74863500
H       -2.85022800      -1.04519600      -0.48564500
H       -1.96709200      -0.44925300      -1.90964100
H       -2.74764300      -2.04626200      -1.95096400
H       -0.96911200       0.96436300       0.42994800
H        0.38226600       1.61745800       1.32988300
H       -0.30713600      -0.48081000       2.41449300
H       -1.30205500      -1.78820900      -0.94679600
H        0.65814200       1.64483900      -1.26452700
H        0.77818600      -0.09939000      -1.18879400
H        3.06159300       0.82279300      -1.21779300
