17
Extracted from Q-Chem output
C      -2.193067     -1.210137     -0.638818
C      -0.823237      0.553157     -0.488670
C       0.276341     -0.146939      0.178388
O       0.589011     -1.284468     -0.394311
C       1.366824      1.003729     -0.071142
C       2.648431      0.480036      0.544353
O       3.340776      1.136652      1.268761
H      -2.734543     -0.258093     -0.653721
H      -2.495651     -1.727675     -1.550561
H      -2.524947     -1.739000      0.254211
H      -0.776754      0.595411     -1.571888
H      -1.396698      1.333953      0.008333
H       0.114432     -0.159255      1.276939
H      -1.035945     -1.374958     -0.643320
H       1.138461      1.975308      0.367183
H       1.533513      1.093193     -1.148781
H       2.885833     -0.562437      0.267609
