13
Extracted from Q-Chem output
C       1.879249      0.303900      0.390141
O       0.838372     -0.543935     -0.091789
C      -0.392158      0.009674     -0.231149
C      -1.536809     -0.768770      0.355854
C      -0.509803      1.507446     -0.349494
N      -0.666517      1.081881     -1.535699
H       1.649780      0.672558      1.391055
H       2.037273      1.152103     -0.278261
H       2.772398     -0.315787      0.416626
H      -0.668474     -0.127241     -1.554030
H      -1.442086     -1.832997      0.139253
H      -1.523201     -0.627710      1.439188
H      -2.486696     -0.398605     -0.024943
