7
Extracted from Q-Chem output
O       0.549495      1.409200     -0.153289
C       1.194436     -0.630751      0.082231
N       0.209543     -1.251051      0.143655
C      -1.284088      0.093195     -0.022329
N      -0.636974      1.087216     -0.128349
H       2.231161     -0.373684      0.061705
H      -2.263573     -0.334126      0.016375
