13
Extracted from Q-Chem output
C      -1.451717      0.642588     -0.122876
C      -1.283498     -0.843273     -0.050508
C      -0.037852      1.105450     -0.031264
N       0.792334      0.067031      0.071732
C       2.116995     -0.017750      0.172614
C       0.001586     -1.131624      0.059623
H      -2.090152      1.003751      0.694232
H      -1.952213      0.934992     -1.055576
H      -2.086857     -1.563569     -0.084043
H       0.336717      2.114316     -0.047760
H       2.698780      0.888158      0.179150
H       2.561537     -0.994211      0.244471
H       0.512219     -2.078701      0.134931
