14
Extracted from Q-Chem output
O      -1.456600     -1.031415      1.272124
C      -0.506856     -0.037028     -0.721811
C      -1.210594      0.183133      0.592476
N       0.312323      0.986492     -1.330370
C       0.977267     -0.201722     -0.813556
C       1.787580     -0.090719      0.424070
O       1.818543      0.895500      1.114828
H      -2.121403     -1.530201      0.794377
H      -1.080246     -0.617104     -1.441884
H      -0.597229      0.791769      1.256798
H      -2.143200      0.730602      0.408501
H       0.472925      1.743626     -0.668704
H       1.366796     -0.888876     -1.557206
H       2.382755     -0.985104      0.685871
