15
Extracted from Q-Chem output
C       1.892308      0.495277     -0.160242
C       0.580521     -0.235549     -0.350115
C      -0.153722     -0.552393      0.939598
O      -0.467595      0.742265      1.391189
C      -0.608227      0.594552     -0.792209
C      -1.808933     -0.102584     -0.579607
C      -1.552283     -0.880689      0.519458
H       2.662326     -0.197885      0.183526
H       1.771992      1.285004      0.580836
H       2.241088      0.936825     -1.096541
H       0.705491     -1.082080     -1.038476
H       0.318616     -1.215733      1.671020
H      -0.530880      1.500719     -1.385670
H      -2.773010      0.156844     -0.989245
H      -2.268325     -1.432244      1.113639
