12
Extracted from Q-Chem output
C      -1.643789     -1.299110     -0.691410
C      -0.408415     -0.471723     -0.836780
C       1.898933      1.457194      1.050112
O       2.880589      2.119607      0.968212
C       0.195381      0.120029      0.175866
O       1.333968      0.870557     -0.019926
H      -1.475040     -2.318107     -1.047223
H      -1.970626     -1.354144      0.348114
H      -2.463810     -0.884115     -1.281967
H       0.017139     -0.350611     -1.827950
H       1.358421      1.257914      1.991844
H      -0.153007      0.057688      1.203333
