14
smiles: [H:7][H:8].[O:1]=[C:2]1[C:3]([H:9])([H:10])[C@@:4]2([H:11])[C:5]([H:12])([H:13])[C@@:6]12[H:14]
O       -0.81235500       2.10970200      -0.58954900
C       -0.35861700       1.01237000      -0.46258700
C       -0.94076000      -0.39204500      -0.71591000
C        0.27212100      -0.94008600       0.03678000
C        1.50555200      -0.55993000      -0.68252300
C        0.85728000       0.47289500       0.21455600
H       -1.75646400       1.14149800       2.14541500
H       -1.60505000       0.59546300       2.62840700
H       -1.06822200      -0.71552900      -1.74997100
H       -1.88663800      -0.49045500      -0.18179100
H        0.24259900      -1.71514800       0.78824000
H        1.48989400      -0.42902000      -1.75911300
H        2.43685000      -0.95054000      -0.29255100
H        1.38568700       0.91937200       1.04500600
