13
Extracted from Q-Chem output
C       1.993873      0.363938     -0.192821
C       0.677214      0.192477     -0.097686
C      -0.031624     -1.123030      0.178335
N      -1.409962     -0.725102      0.478971
C      -1.548836      0.600472      0.100248
C      -0.384743      1.187711     -0.207586
H       0.414054     -1.668340      1.011481
H       2.416569      1.340252     -0.393747
H       2.685059     -0.461273     -0.072019
H       0.003365     -1.763173     -0.710146
H      -2.140545     -1.359824      0.204114
H      -2.530557      1.054652      0.126129
H      -0.239920      2.231685     -0.436823
