13
Extracted from Q-Chem output
C       1.928314      0.076152     -0.130369
C       0.525330      0.254721     -0.276635
C      -0.079136     -1.014552     -0.044543
N      -1.399882     -0.720744      0.374565
C      -1.612958      0.610551      0.183929
C      -0.488861      1.247658     -0.279150
H       1.254678     -1.322580      0.256956
H       2.651585      0.643553     -0.713604
H       2.256934     -0.107835      0.885904
H      -0.023784     -1.737010     -0.855987
H      -2.130933     -1.389145      0.526338
H      -2.557006      1.054454      0.469160
H      -0.381818      2.313982     -0.397853
