11
Extracted from Q-Chem output
C      -1.163658     -0.609509     -0.905823
N      -1.644578      0.809065      0.757844
C      -0.527897      1.126078      0.995320
O       0.499895      0.324847     -0.112991
C       1.679134     -0.199615      0.198169
O       2.370549      0.162160      1.108677
H      -1.874220      0.052634     -1.371907
H      -1.562512     -1.312569     -0.192418
H      -0.380817     -0.974184     -1.553025
H       0.148031      1.706222      1.601531
H       1.954830     -1.025143     -0.482518
