14
Extracted from Q-Chem output
C      -1.673107      0.346052      0.251150
C      -0.544263     -0.668788      0.147135
C       0.771562     -0.060599     -0.300991
C       2.283530      0.002959      0.807900
O       1.879235     -0.922639     -0.170824
C       0.741529      0.542214     -1.637517
N       0.656907      1.002282     -2.683395
H      -1.446479      1.118742      0.989149
H      -2.595951     -0.145305      0.558113
H      -1.858583      0.835254     -0.706814
H      -0.360718     -1.154850      1.107067
H      -0.791846     -1.455536     -0.569427
H       1.055461      0.864001      0.363114
H       1.729849     -0.313845      1.730722
