18
Extracted from Q-Chem output
C       2.510633      0.216625      0.748127
N       1.241579      0.403015     -1.550831
C       0.539199      0.150902     -0.529276
O       1.103027      0.038555      0.682693
C      -0.957860     -0.058098     -0.458467
C      -1.290388     -1.465318      0.037346
C      -1.617507      1.012922      0.410229
H       2.789725      1.212550      0.401836
H       3.021914     -0.520521      0.127833
H       2.776251      0.086345      1.794933
H       0.658686      0.452480     -2.378136
H      -1.328947      0.046846     -1.481806
H      -0.940307     -1.605677      1.060905
H      -0.824319     -2.228079     -0.588999
H      -2.370186     -1.625249      0.020945
H      -2.702193      0.889668      0.401912
H      -1.273395      0.936957      1.442597
H      -1.386620      2.016425      0.048174
