14
Extracted from Q-Chem output
C      -1.269429     -0.261943      0.136571
C      -0.546277      1.028447     -0.255877
C       0.913449      0.939849      0.091387
O       1.225246      0.272808      1.304727
C       1.535561     -0.385370      0.084385
N       0.795211     -1.554618     -0.267014
C      -0.467950     -1.478750     -0.230480
H      -1.431912     -0.279550      1.217793
H      -2.253512     -0.317003     -0.331483
H      -0.628852      1.197590     -1.334018
H      -1.005947      1.886341      0.238757
H       1.527688      1.812033     -0.119515
H       2.599361     -0.490501     -0.095798
H      -1.018481     -2.381876     -0.497346
