17
smiles: [C:1]([C:2](=[O:7])[H:11])([H:8])([H:9])[H:10].[C:3](=[C:4]([C:5](=[C:6]([H:16])[H:17])[H:15])[H:14])([H:12])[H:13]
C       -2.71932000       0.20878000      -0.27425600
C       -1.51645100       1.04565800      -0.58942200
C        0.60911800      -1.66625900       0.74866900
C        1.11513100      -0.92500700      -0.22933200
C        1.75965100       0.38272600      -0.04587200
C        2.54481000       0.70542400       0.97471200
O       -1.11451800       1.27244400      -1.69693300
H       -2.42216000      -0.62865000       0.36256600
H       -3.18200600      -0.16128200      -1.18706900
H       -3.43545900       0.80349800       0.29871900
H       -0.98929700       1.46766600       0.29271900
H        0.16141700      -2.63203300       0.54989800
H        0.61252200      -1.32386800       1.77770900
H        1.04156400      -1.28284300      -1.25316600
H        1.58111100       1.11807300      -0.82621800
H        2.79203800      -0.01422200       1.74737000
H        2.97927400       1.69359700       1.06061000
