14
smiles: [C:1]([C:2]1([H:11])[C:3]([H:12])=[C:4]1[H:13])([H:8])([H:9])[H:10].[N:5](=[C:6]=[O:7])[H:14]
C       -1.47357700       1.68668500       0.34521900
C       -0.44027200       0.59171100       0.19227500
C        1.01155400       0.89614800      -0.02666100
C        0.71086500       0.45040700       1.14293500
N        1.58157900      -2.43824900      -0.54545500
C        0.68965800      -2.97640500      -1.15636200
O       -0.08433800      -3.59768800      -1.75657800
H       -1.88985200       1.97516700      -0.62372300
H       -1.03205900       2.57593100       0.80020900
H       -2.30417200       1.36053500       0.97677800
H       -0.83966300      -0.31984500      -0.25704900
H        1.75332500       1.25795100      -0.71733400
H        1.01906800       0.17146100       2.13560300
H        1.54248300      -1.51938500      -0.14497300
