10
Extracted from Q-Chem output
N       1.887278      0.036807     -0.434050
C       0.569635      0.043629     -0.147651
N      -0.315005      0.923206     -0.293749
C      -1.539676      0.268611      0.145128
C      -1.197763     -1.125614      0.580447
O       0.097270     -1.196478      0.373633
H       2.313639      0.924080     -0.629024
H       2.454539     -0.667109      0.001753
H      -2.021231      0.797211      0.975288
H      -2.290136      0.211976     -0.652172
