10
Extracted from Q-Chem output
N       1.859256      0.027040     -0.455318
C       0.563794      0.032319     -0.093608
N      -0.242644      1.033902     -0.040308
C      -1.438856      0.417551      0.351153
C      -1.302164     -0.980815      0.594485
O       0.018288     -1.171828      0.206103
H       2.325238      0.912916     -0.516206
H       2.405819     -0.790225     -0.257357
H      -2.296133      1.003696      0.654774
H      -1.928036     -0.359292     -0.497558
