17
Extracted from Q-Chem output
C       1.657886     -0.884353     -0.078325
C       0.352009     -0.143944      0.004929
C      -0.540465      0.168645     -1.229299
C      -1.567759      0.435429     -0.118742
C      -0.934716     -0.736502      0.646891
O      -1.039398      1.585887      0.547302
C       0.345668      1.233659      0.667213
H       2.394906     -0.314473     -0.649721
H       1.529842     -1.851898     -0.567234
H       2.071194     -1.063034      0.917572
H      -0.266770      1.007847     -1.870513
H      -0.760696     -0.721568     -1.817722
H      -2.634452      0.558791     -0.284159
H      -1.192400     -1.711871      0.235334
H      -1.023549     -0.729835      1.734293
H       0.969238      1.963241      0.140936
H       0.639463      1.203979      1.721244
