17
Extracted from Q-Chem output
C       1.676561     -0.824186     -0.174033
C       0.330238     -0.152892     -0.046825
C      -0.499147      0.190716     -1.299128
C      -1.519622      0.767383     -0.374909
C      -0.862929     -0.963179      0.529639
O      -1.047235      1.602567      0.537131
C       0.340926      1.183432      0.717640
H       2.392590     -0.172181     -0.680603
H       1.585697     -1.737316     -0.763738
H       2.090721     -1.087465      0.803606
H      -0.076623      0.937055     -1.993918
H      -1.423747     -0.861263     -0.647078
H      -2.595859      0.839715     -0.506961
H      -0.752993     -2.033045      0.321542
H      -1.176477     -0.826281      1.566000
H       1.004724      1.922594      0.266258
H       0.511124      1.133391      1.794149
