12
Extracted from Q-Chem output
O       2.392624      0.218476      0.068444
C       1.195977      0.045894      0.032226
N       0.309927      0.843868     -1.030461
C      -0.728106      0.723413     -0.208513
C      -0.909362     -0.723307      0.140605
N       0.447277     -1.197413     -0.003171
H       0.654234      1.778329     -1.202072
H      -1.518583      1.463103     -0.103506
H       0.492307      0.627129      1.051857
H      -1.346410     -0.845961      1.133517
H      -1.576054     -1.175045     -0.604270
H       0.741898     -1.832100      0.725655
