9
Extracted from Q-Chem output
N       1.992780      0.002000     -0.040579
C       0.749289     -0.167543      0.035093
N      -0.209357      0.814801      0.183635
C      -1.420900      0.199510      0.219639
N      -1.335576     -1.071191      0.111646
O       0.043032     -1.331570     -0.006937
H       2.481625     -0.878674     -0.145835
H      -0.001299      1.792902      0.247234
H      -2.362723      0.714729      0.325936
