9
Extracted from Q-Chem output
N       1.761120      0.195046      0.056235
C       0.546838     -0.265796      0.056514
N      -0.290875      0.771541      0.190530
C      -1.514508      0.200965      0.177227
N      -1.494099     -1.088962      0.048259
O      -0.093604     -1.408364     -0.033445
H       2.584883     -0.373385     -0.027631
H       0.889462      1.315442      0.200397
H      -2.452347      0.728479      0.261749
