16
smiles: [C:4](=[C:5]([C:6]([O:7][H:16])([H:14])[H:15])[H:13])([H:10])[H:11].[N:1]([C:2][O:3][H:12])([H:8])[H:9]
N        1.53936900      -2.56039200       1.86297700
C        0.97711300      -1.58466400       1.17078700
O        1.42778800      -0.42344600       1.66990500
C        0.31676300       2.15904000      -0.10860200
C       -0.66775700       1.28685800      -0.24654500
C       -0.75433500       0.27760600      -1.34425400
O       -2.03577700       0.37449300      -1.94302000
H        2.18660000      -2.39072500       2.62455900
H        1.31809300      -3.50914700       1.62784000
H        0.34712400       2.85190800       0.72323900
H        1.13236100       2.21203100      -0.82249300
H        1.01716100       0.27838900       1.16348300
H       -1.48380700       1.26071500       0.47045800
H        0.04291900       0.45360900      -2.07716200
H       -0.60687800      -0.72543600      -0.92013500
H       -2.15123500      -0.36323500      -2.54310600
