14
Extracted from Q-Chem output
C       2.034645      0.079817     -0.613581
C       0.946068      0.891028     -0.080587
C       0.135817      1.722888      0.391198
C      -0.498708      0.251419      0.827178
C      -1.911414      0.019459      0.364465
C      -0.878302     -0.971673     -0.014006
H       2.507579     -0.514958      0.169218
H       2.781843      0.764016     -1.019180
H       1.704186     -0.580678     -1.416326
H      -0.301330      0.043128      1.869920
H      -2.631277     -0.237720      1.130781
H      -2.272431      0.694947     -0.398512
H      -0.855736     -1.927534      0.493298
H      -0.564504     -1.004182     -1.048583
