13
Extracted from Q-Chem output
C      -2.278745      0.292906      0.262077
O      -1.460022     -0.750510     -0.280990
C       0.174798     -0.492731     -0.199339
N       0.710001      0.345143     -0.943900
N       2.049635      0.630012     -0.690478
C       2.805277     -0.047468      0.111766
C      -0.404281     -1.260253      0.719809
H      -2.976887      0.579035     -0.523132
H      -2.804593     -0.097207      1.132756
H      -1.663427      1.147105      0.546144
H       2.322924      1.429321     -1.250804
H       3.789441      0.447545      0.080816
H      -0.370296     -2.331724      0.833234
