10
Extracted from Q-Chem output
O       2.642306     -0.059459     -0.106889
C       1.538512     -0.725386      0.026986
C       0.635769     -1.515727      0.168346
N      -2.034593     -0.158963      0.103119
C      -1.089263      0.664236     -0.040580
N       0.153723      0.867922     -0.116852
H       2.407703      0.872816     -0.218311
H      -0.222211     -2.135693      0.284458
H      -2.958809      0.247902      0.089144
H      -1.093442      1.824504     -0.188784
