11
smiles: [N:1]1([H:7])/[C:2](=[N:6]\[H:11])[C:3]1([H:8])[H:9].[N:4]#[C:5][H:10]
N       -1.59902900       1.31925200       0.52824000
C       -0.39062100       0.74559500       0.18751500
C       -1.49463200      -0.17169600       0.35965100
N        2.89714100      -2.73734700      -0.55607600
C        2.41089400      -1.70750900      -0.45173200
N        0.80796700       0.93561500      -0.11317600
H       -2.08746100       1.82413700      -0.20044500
H       -1.63610200      -0.73081600       1.27648800
H       -1.91329200      -0.62189900      -0.53496100
H        1.95593400      -0.74584300      -0.35420300
H        1.02163000       1.93137800      -0.14013100
