11
Extracted from Q-Chem output
N      -1.443649      1.416294      0.186560
C      -0.292749      0.754273      0.074363
C      -0.810629     -0.598093      0.220279
N       0.716124     -1.730949     -0.230085
C       1.706939     -1.156277     -0.367265
N       0.948468      1.060081      0.148656
H      -2.210801      0.982429     -0.317569
H      -0.927670     -0.982467      1.225436
H      -1.491143     -0.987777     -0.524302
H       2.693741     -0.781053     -0.525159
H       1.083797      2.064419      0.110266
