16
smiles: [C:1]([H:8])([H:9])([H:10])[H:11].[C:2]([O:3][H:12])[C@@:4]([C:5]([H:14])([H:15])[H:16])([C:6]#[N:7])[H:13]
C       -0.93802300      -0.40524600      -2.19975700
C       -1.17927100       0.29359100       1.36932200
O       -1.32509900      -0.98905500       1.32477000
C        0.30081100       0.71145000       1.30691800
C        1.37403600      -0.35238200       1.05145600
C        0.41341900       1.81309300       0.34987700
N        0.54020200       2.64926800      -0.42416800
H       -0.03234200       0.19894500      -2.21969800
H       -1.38117500      -0.42934700      -3.19423700
H       -0.69067000      -1.41897900      -1.88841700
H       -1.64836300       0.02730300      -1.49680500
H       -0.49819900      -1.50029800       1.21697800
H        0.44699000       1.15808000       2.30031000
H        2.36258700       0.10303600       1.06397100
H        1.24881500      -0.82679900       0.07546100
H        1.36906800      -1.11879100       1.83130500
