16
Extracted from Q-Chem output
C      -0.629633     -0.434671     -1.669396
C      -1.218270      0.137081      0.351847
O      -1.590735     -1.036258      0.876149
C       0.119264      0.663650      0.851126
C       1.303679     -0.308307      0.974984
C       0.507497      1.847307      0.082343
N       0.841708      2.759131     -0.527522
H       0.106930      0.248537     -2.083616
H      -1.440079     -0.629725     -2.371686
H      -0.198084     -1.368788     -1.326198
H      -1.428379      0.260642     -0.845541
H      -0.841731     -1.573402      1.171246
H      -0.127035      1.023585      1.858241
H       2.145061      0.182575      1.462666
H       1.634399     -0.660360     -0.001246
H       1.045038     -1.172815      1.592013
