17
smiles: [C:1]([C:2]1=[C:7]([H:17])[C:4]([H:11])([H:12])[O:3]1)([H:8])([H:9])[H:10].[C:5](=[C:6]([H:15])[H:16])([H:13])[H:14]
C        1.97018600       1.10513400      -0.09002700
C        1.34561000      -0.23056600      -0.01829200
O        0.68687600      -0.64810800       1.12253000
C        0.41761600      -1.89723000       0.41205100
C       -2.32842600       0.87309000       0.68821400
C       -2.19155200       0.67840200      -0.61202400
C        1.16100200      -1.32328600      -0.76083500
H        1.22040100       1.88245300       0.06991500
H        2.73297600       1.21180200       0.68376200
H        2.43145200       1.25081400      -1.06568300
H        0.87493000      -2.73768400       0.93609100
H       -0.65763700      -2.04576800       0.30233300
H       -1.54513300       0.60818100       1.38915500
H       -3.22998600       1.30556000       1.10686300
H       -2.97481200       0.94326300      -1.31302900
H       -1.29006100       0.24586400      -1.03075000
H        1.42251300      -1.65002900      -1.75155100
