17
Extracted from Q-Chem output
C       2.101199      0.878371     -0.244398
C       1.111517     -0.175217      0.088232
O       0.517415     -0.145030      1.327971
C      -0.319770     -1.191863      0.751352
C      -1.817588      0.088610      0.579047
C      -1.221931      0.468389     -0.721880
C      -0.090453     -0.636519     -0.651993
H       1.600209      1.849023     -0.353748
H       2.841254      0.968120      0.550325
H       2.607556      0.643879     -1.179930
H       0.819844     -1.876675      0.486132
H      -0.882768     -1.899499      1.343155
H      -1.827722      0.794352      1.399781
H      -2.697640     -0.545046      0.533130
H      -1.871264      0.282683     -1.576041
H      -0.831986      1.482559     -0.790761
H       0.006455     -1.316364     -1.491686
