19
smiles: [C:1]([C:2]([H:11])([H:12])[H:14])([H:8])([H:9])[H:10].[C:3]([C@@:4]1([H:15])[C:5]([H:16])([H:17])[C@:6]1([O:7][H:19])[H:18])[H:13]
C       -2.56048400       0.23783000      -0.57232400
C       -1.95770600       1.16393900       0.47545000
C        0.35089400      -1.69451800       0.73245300
C        1.44373800      -0.82301500       0.91169900
C        2.49415700      -1.01714400      -0.24957100
C        1.86989300       0.27989600      -0.10079600
O        1.01226000       0.67123800      -1.10876000
H       -1.82951300      -0.02204900      -1.34036000
H       -2.91373200      -0.69322900      -0.12473700
H       -3.41156100       0.70466300      -1.07209700
H       -2.68863900       1.42371200       1.24354600
H       -1.60459100       2.09504600       0.02784300
H       -0.00075000      -1.56157200      -0.30720400
H       -1.10653200       0.69716600       0.97511300
H        1.90870100      -0.72926700       1.88871000
H        2.17538200      -1.63112000      -1.08056000
H        3.50215800      -1.18593100       0.10114100
H        2.44171000       1.07537700       0.37006300
H        0.33596000       1.24434400      -0.74081900
