19
Extracted from Q-Chem output
C      -2.507503      0.295389     -0.575185
C      -1.615356      0.593042      0.607153
C      -0.071366     -1.118921      0.688150
C       1.180791     -0.386243      0.838733
C       2.323102     -0.973631      0.008473
C       1.865239      0.395163     -0.279834
O       1.222605      0.580714     -1.500312
H      -1.925842      0.110206     -1.479235
H      -3.120652     -0.588011     -0.388410
H      -3.185967      1.128573     -0.775390
H      -2.179745      0.877201      1.499346
H      -0.855572      1.347595      0.423958
H      -0.277670     -1.280093     -0.377135
H      -1.143060     -0.423575      1.082311
H       1.463400     -0.087628      1.843156
H       2.051425     -1.731466     -0.715141
H       3.270057     -1.130757      0.505545
H       2.499323      1.220289      0.035160
H       0.589994      1.296105     -1.410043
