14
smiles: [C:1]1([H:8])([H:9])[C@@:2]2([H:10])[O:3][C:4]([H:11])=[C:5]([H:13])[C@@:6]12[H:14].[H:7][H:12]
C        1.25718100      -0.21256100       0.00089100
C        0.77669800       1.01197900      -0.69947800
O       -0.06194000       0.85037800      -1.82128900
C       -1.20621600       0.26075700      -1.37376500
C       -1.25249800       0.06968300      -0.05868800
C        0.03836900       0.51995100       0.52215400
H       -0.07993300      -1.93459000       2.04419400
H        1.10441900      -1.17548300      -0.46928900
H        2.17886400      -0.10530700       0.55730100
H        1.37786000       1.90868600      -0.75038800
H       -1.92855100       0.02720000      -2.14152000
H       -0.24777100      -2.45164400       2.55297400
H       -2.08260600      -0.34718900       0.48857400
H        0.07656700       1.01973800       1.48093900
