14
Extracted from Q-Chem output
C       1.479028     -0.316386      0.331846
C       0.755030      0.635912     -0.529319
O      -0.095422     -0.161812     -1.421484
C      -1.250364     -0.366813     -0.809632
C      -1.431111      0.462648      0.289567
C      -0.211981      1.030590      0.535427
H       0.224759     -1.410686      0.580250
H       2.000929     -1.142375     -0.134113
H       1.942761      0.095716      1.215765
H       1.251253      1.380758     -1.158358
H      -1.942605     -1.035811     -1.299245
H      -0.530566     -1.722011      0.359195
H      -2.299133      0.458886      0.929560
H       0.070342      1.626200      1.389062
