11
Extracted from Q-Chem output
N      -1.129990      1.180647      0.335426
C      -1.262286     -0.151490      0.347569
O      -2.283504     -0.751677      0.630985
C      -0.047181     -0.991794      0.025918
C       1.229089     -0.630638     -0.258186
C       1.542962      0.738287     -0.478185
H      -1.917587      1.735722      0.619041
H      -0.218139      1.575315      0.107773
H      -0.310825     -2.045668      0.045631
H       1.944224     -1.439898     -0.413728
H       2.482187      0.806321     -1.048028
