15
Extracted from Q-Chem output
N       1.464989     -0.464034     -1.092221
C       0.342674      0.329211     -0.676536
O       0.172977      1.280168     -1.664943
N      -0.839234     -0.484801     -0.459896
C      -1.228637     -0.413838      0.942967
C      -0.001824      0.213536      1.594026
O       0.539869      1.007728      0.561871
H       2.133064      0.126674     -1.568295
H       1.917930     -0.883118     -0.291168
H      -0.683606     -1.418949     -0.803178
H      -1.470248     -1.398052      1.345546
H      -2.104718      0.228492      1.068164
H       0.716442     -0.554381      1.916554
H      -0.225542      0.858079      2.443390
H      -0.746383      1.554002     -1.634630
