15
Extracted from Q-Chem output
N       1.399389     -0.397840     -1.607924
C       0.297974      0.011673     -0.950376
O      -0.218648      1.165510     -1.344152
N      -0.466305     -0.907488     -0.312494
C      -1.214715     -0.369503      0.817137
C      -0.192145      0.425850      1.668413
O       0.645934      1.091557      0.816573
H       1.914318      0.335891     -2.061564
H       1.942077     -1.154655     -1.232783
H       0.021676     -1.766007     -0.105813
H      -1.698404     -1.190055      1.346771
H      -1.988091      0.293495      0.427403
H       0.360569     -0.281751      2.315135
H      -0.754888      1.093453      2.338118
H      -0.060993      1.630587     -0.432790
