14
smiles: [C:1]([C:2]1=[C:3]([H:10])[C:4]([H:11])([H:12])[O+:5]=[C-:6]1)([H:7])([H:8])[H:9].[H:13][H:14]
C       -1.61959900       0.34613800      -0.33727000
C       -0.14200800       0.25464700      -0.17340100
C        0.81220500       1.07484200      -0.62413100
C        2.12659300       0.55259100      -0.19999100
O        1.78023500      -0.64179200       0.53066100
C        0.49040000      -0.86306800       0.57830700
H       -2.00134900      -0.55531400      -0.82021500
H       -1.91232100       1.21308300      -0.92966600
H       -2.10403300       0.40793000       0.63911800
H        0.69186000       1.97991100      -1.20509200
H        2.67785600       1.21345800       0.47300800
H        2.78320300       0.26638000      -1.02498000
H       -2.21359600      -2.83513300       1.88141800
H       -1.57992200      -2.53616900       1.62949000
