14
Extracted from Q-Chem output
C      -1.807991      0.252547     -0.612195
C      -0.370218      0.055837     -0.278924
C       0.641727      0.919707     -0.343710
C       1.880795      0.257457      0.146570
O       1.477438     -1.104308      0.353970
C       0.170640     -1.251892      0.156491
H      -2.101845     -0.398105     -1.437528
H      -2.014817      1.285522     -0.890016
H      -2.435570     -0.007065      0.243895
H       0.601994      1.949878     -0.669919
H       2.248835      0.677154      1.091369
H       2.703334      0.243024     -0.571487
H      -0.604106     -1.174746      1.789958
H      -0.463283     -1.805143      1.098620
