17
Extracted from Q-Chem output
O       0.652309     -1.836716      0.873656
C       1.753615     -1.246673      0.616498
C       2.160452     -0.732549     -0.585934
C       0.122083      1.191479      0.115065
C      -1.145965      1.284043     -0.421834
C      -1.074345     -0.362239     -0.605151
C      -2.188097      0.335123      0.061588
H       2.431965     -1.065081      1.471635
H       3.133157     -0.263759     -0.668540
H       1.631571     -0.959889     -1.505677
H       0.962037      1.690519     -0.344435
H       0.291945      0.721617      1.074643
H      -1.317277      1.842743     -1.331196
H      -1.096802     -0.548817     -1.671124
H      -0.384941     -1.042749      0.019880
H      -3.129582      0.420783     -0.465667
H      -2.269166      0.174802      1.130770
