17
smiles: [C:1]([C@@:2]12[C:3]([H:11])([H:12])[C:4]([H:13])([H:14])[C@:6]1([H:16])[O:7]2)([H:8])([H:9])[H:10].[O:5]([H:15])[H:17]
C       -1.62851300      -1.48641200       0.40167900
C       -0.58197000      -0.52458900      -0.03980900
C        0.93462500      -0.72922300      -0.09774800
C        0.98993400       0.32090400      -1.24726300
O        1.35808000       2.12797200       1.60178300
C       -0.52202300       0.46872600      -1.11657300
O       -0.78298000       0.85976000       0.22713000
H       -1.50885800      -2.44571900      -0.10471500
H       -1.55710800      -1.65850600       1.47818500
H       -2.62135100      -1.09350800       0.18191500
H        1.21863700      -1.72763100      -0.43151700
H        1.46366100      -0.48573700       0.82388900
H        1.30116400      -0.11422900      -2.19680400
H        1.55703300       1.23226300      -1.05768100
H        0.55044800       1.79956800       1.20467500
H       -1.25303900       0.75204300      -1.86345700
H        1.08268700       2.82018200       2.20422000
