11
smiles: [C:2]1([H:8])([H:9])[C@@:3]([C:5]#[N:6])([H:10])[O:4]1.[O:1]([H:7])[H:11]
O        1.83308500       0.91481200       1.20039300
C        0.20886600      -0.89067600      -0.79511700
C       -0.78988200      -0.16161500      -0.01040500
O        0.04155500       0.50549700      -0.93446900
C       -2.19646900      -0.25644300      -0.35450000
N       -3.31221100      -0.34147000      -0.60451400
H        2.35186000       1.63920700       1.55232900
H       -0.11962300      -1.48663400      -1.64033700
H        1.12308500      -1.20830900      -0.30400900
H       -0.60067200       0.05448500       1.03632500
H        1.47633900       1.23619100       0.37139900
