13
Extracted from Q-Chem output
C      -1.987946      0.336347     -0.150562
C      -0.537356      0.010253     -0.144617
N      -0.022319     -0.759522     -1.178135
O       1.364120     -0.832666     -0.996132
C       1.671464     -0.257279      0.219050
N       2.868029     -0.305045      0.613784
C       0.424936      0.280187      0.744223
H      -2.582173     -0.578385     -0.127008
H      -2.243070      0.945517      0.713849
H      -2.261486      0.888632     -1.052718
H       2.956537      0.137859      1.520377
H      -0.189302     -0.415508     -2.116747
H       0.321380      0.790128      1.687170
