16
Extracted from Q-Chem output
C      -1.463763     -0.272206     -1.008702
C      -0.853494     -0.294877      0.487242
O      -0.715184     -1.513352      0.917575
C       0.401075      0.424965      0.198681
C       1.571184     -0.264530     -0.399386
C       0.351184      1.847700      0.111975
N       0.291308      2.995340      0.055162
H      -1.593842      0.734464     -1.402701
H      -2.432004     -0.749584     -0.883885
H      -0.846922     -0.880579     -1.666133
H      -1.534353      0.367833      1.055992
H       0.434629     -0.896384      1.963730
H       0.880917     -0.226576      2.048694
H       2.500965      0.132465      0.007878
H       1.592071     -0.072165     -1.477807
H       1.495679     -1.332520     -0.206016
