15
smiles: [C:1](/[C:2](=[C:3](\[O:5][H:15])[H:11])[H:9])([H:6])([H:7])[H:8].[C:4]([H:10])([H:12])([H:13])[H:14]
C        2.84640700       0.69980500      -0.27459600
C        1.68499300       0.29903900      -1.12777700
C        0.42483900       0.23902900      -0.72431900
C       -3.04181600      -0.95498000       0.44119100
O        0.04539700       0.54386600       0.55133600
H        2.52727700       0.95097200       0.73610600
H        3.35850700       1.56884900      -0.69547200
H        3.58202500      -0.10590800      -0.20793300
H        1.87331200       0.03568400      -2.16204300
H       -2.17579800      -1.61467100       0.41586000
H       -0.37303100      -0.05759800      -1.39839300
H       -3.01331500      -0.28623500      -0.41774600
H       -3.95345100      -1.54964700       0.40792100
H       -3.02475300      -0.36928100       1.35905200
H       -0.90140600       0.44019400       0.63765300
