15
Extracted from Q-Chem output
C       2.773516     -0.652337     -1.331699
C       1.997163     -0.054577     -0.228876
C       0.650796      0.263358     -0.593446
C      -0.225167      0.476259      0.405298
C      -1.677641      0.588020      0.228449
C      -2.586948     -0.053755      1.188110
O      -2.371832      1.336313      1.218109
H       3.264344      0.240121     -1.758365
H       3.589255     -1.289293     -0.989181
H       2.213043     -1.134183     -2.145288
H       0.283606      0.227903     -1.626785
H       0.156774      0.529813      1.420847
H      -2.033744      0.737518     -0.787938
H      -3.564753     -0.374849      0.841126
H      -2.171267     -0.610156      2.023481
