15
Extracted from Q-Chem output
C       2.705677     -0.584295     -1.631729
C       1.833952     -0.666936     -0.447524
C       0.951659      0.095110      0.083792
C      -0.251228      0.509455      0.645172
C      -1.560339     -0.002700      0.211573
C      -2.718252      0.055283      1.111941
O      -2.609841      0.945398      0.023061
H       3.744038     -0.796717     -1.371790
H       2.403827     -1.382192     -2.317069
H       2.656269      0.363700     -2.180513
H       0.972772      1.239292     -0.131222
H      -0.243992      1.313691      1.372475
H      -1.528289     -0.789320     -0.536225
H      -3.491114     -0.703723      1.026368
H      -2.604174      0.503012      2.095734
