10
Extracted from Q-Chem output
O       2.019728     -1.302701      0.482864
C       0.964784     -0.788383      0.221126
N       0.810494      0.577477      0.273569
N      -0.397193      1.186720      0.004138
C      -1.496993      0.597635     -0.340537
C      -1.266330     -0.866015     -0.401548
N      -0.182763     -1.505990     -0.156834
H       1.585989      1.154857      0.553054
H      -0.355036      2.192623      0.096295
H      -2.121816     -1.473377     -0.688150
