13
smiles: [C:1]([N:6]=[C:5]=[C:4]([H:12])[H:13])([H:7])([H:8])[H:9].[O:2]=[C:3]([H:10])[H:11]
C        0.92967000       1.65262100       1.49109900
O       -1.28935100      -1.56495900      -2.96989400
C       -0.69118600      -0.81083100      -2.26041000
C       -0.82435500      -1.42040800       1.13530600
C       -0.20479400      -0.30206300       0.85968500
N        0.35783200       0.72000900       0.53549800
H        0.45593700       2.62506900       1.35548700
H        0.80314000       1.32810300       2.52745400
H        1.99148100       1.76868000       1.27336200
H        0.36288300      -0.98921500      -1.97283700
H       -1.15899800       0.10580600      -1.85284800
H       -0.27054600      -2.34540900       1.20452000
H       -1.89440300      -1.42552600       1.28467100
