13
Extracted from Q-Chem output
C       1.480089      1.253715      0.853165
O       0.852133     -0.386965     -0.605848
C      -0.369364     -0.723212     -0.973143
C      -1.401632     -0.957590      0.275065
C      -1.007220      0.046022      1.197495
N      -0.391863      0.854456      1.750270
H       1.353059      1.698784     -0.118984
H       1.460816      1.904952      1.711763
H       2.111619      0.382705      0.897109
H      -0.886197      0.011314     -1.623607
H      -0.422785     -1.712598     -1.462796
H      -1.250010     -1.941847      0.717033
H      -2.428005     -0.843040     -0.069367
