8
Extracted from Q-Chem output
N      -1.159044     -0.135142      0.333282
C      -0.120046      0.548207     -0.175335
O      -0.137536      1.682667     -0.596312
C       1.188130     -0.250471     -0.193638
O       1.273563     -1.375700      0.207581
H      -2.064107      0.295396      0.387016
H      -1.020616     -1.078968      0.650438
H       2.039655      0.314012     -0.613032
