9
Extracted from Q-Chem output
O       2.652868     -0.689205      1.299119
C       1.800729     -0.061043      0.821999
N       1.045172      0.730540      0.314519
C      -0.323440      0.683286     -0.065731
C      -0.998088     -0.641464      0.196748
O      -0.444989     -1.582211      0.686877
H      -0.431468      0.906932     -1.133277
H      -0.892988      1.458426      0.459787
H      -2.064295     -0.684748     -0.101209
