9
Extracted from Q-Chem output
O       2.275534     -0.936366      0.958704
C       1.247290     -0.418173      0.669915
N       0.868876      0.853486      0.419425
C      -0.563317      0.791276      0.091033
C      -0.970580     -0.518138      0.226531
O       0.033978     -1.280207      0.530908
H       0.215637      0.795510     -0.813575
H      -1.170036      1.682477      0.105366
H      -1.948049     -0.965780      0.113990
