10
Extracted from Q-Chem output
O       2.525080     -0.896612     -0.305710
C       1.392308     -0.562381     -0.161224
O       1.011835      0.288981      0.836186
C      -0.381040      0.548912      0.784781
C      -0.828664     -0.101360     -0.521738
C       0.182666     -1.006997     -1.003078
H      -0.538854      1.626602      0.830608
H      -1.875131     -0.374871     -0.638388
H      -0.602395      0.581323     -1.389023
H      -0.867745      0.083996      1.644808
