12
Extracted from Q-Chem output
C      -1.623254      0.785081      0.128640
C      -0.133751     -1.027055      0.201519
C       0.719472      0.022153     -0.189814
O       0.315127      1.212714     -0.033932
N       1.926344     -0.160111     -0.767838
H      -2.213242      0.073850      0.687285
H      -1.618689      1.770797      0.573798
H      -1.803343      0.761563     -0.935371
H       0.021889     -2.028576     -0.190473
H      -0.392280     -0.995668      1.253512
H       2.411797     -1.030682     -0.676761
H       2.426389      0.642126     -1.104190
