16
Extracted from Q-Chem output
C      -2.234226      0.084528      0.057579
C      -1.151236     -0.500488     -0.812345
O      -0.237599      0.523383     -1.200714
C       0.533885     -0.065851     -0.188320
C       1.748366     -0.751871     -0.768079
C       0.756613      0.792948      1.028521
H      -3.021448      0.324177     -0.665609
H      -1.995279      1.006478      0.594710
H      -2.646935     -0.667572      0.730935
H      -0.181567     -1.021589      0.061146
H       1.434659     -1.447897     -1.545754
H       2.392265      0.004518     -1.220964
H       2.313110     -1.287598     -0.004059
H       1.278035      0.230348      1.804304
H      -0.175554      1.176460      1.437611
H       1.375464      1.648332      0.749269
