16
Extracted from Q-Chem output
C      -1.970744      0.214313     -0.171649
C      -1.057143     -0.405279      0.676430
O      -0.598670     -1.649765      0.472446
C       1.138029      0.807335      0.328147
C       2.101965     -0.342179      0.245905
C       0.554596      1.338511     -0.760627
N      -0.243773      1.627679     -1.593833
H      -2.568440      1.001269      0.275045
H      -2.516203     -0.432771     -0.855718
H      -1.234050      0.945424     -1.054223
H      -0.862060     -0.066269      1.682320
H      -0.862161     -1.954873     -0.400977
H       1.194615      1.455288      1.197209
H       3.139362     -0.004099      0.307067
H       1.983703     -0.887725     -0.690439
H       1.930469     -1.046545      1.062365
