18
Extracted from Q-Chem output
C      -2.223132     -1.116006     -0.000891
C      -1.822340      0.258154      0.517818
N       0.591199     -0.041933      0.174351
C      -0.431537      0.293060      1.143052
C       1.525290      0.768983     -0.047188
C       2.582851      0.430231     -1.054426
O       2.361625     -0.810407     -1.652997
H      -3.224644     -1.094484     -0.433587
H      -2.222929     -1.854260      0.804949
H      -1.530082     -1.461422     -0.768446
H      -1.860197      0.989800     -0.295160
H      -2.538963      0.595066      1.272525
H      -0.247951      1.278954      1.593587
H      -0.379599     -0.451181      1.944341
H       1.610704      1.733249      0.471268
H       2.608806      1.225009     -1.812750
H       3.558920      0.448214     -0.549100
H       1.561116     -1.161597     -1.236289
