7
Extracted from Q-Chem output
O       1.578631      0.222225     -0.499683
C       0.320205      0.083505     -0.127729
N      -0.167554     -0.841621      0.631963
O      -1.481679     -0.528629      0.695849
N      -1.714294      0.583299     -0.038809
N      -0.638420      0.969717     -0.545141
H       2.103111     -0.488496     -0.116450
