17
Extracted from Q-Chem output
C      -1.985106     -0.374670     -0.010738
C      -1.469387      0.938841     -0.509040
C      -0.513570     -0.122743     -0.167366
C       0.582584     -0.908297     -0.939415
C       1.633840     -0.640058      0.079235
C       1.643744      0.739716      0.512516
C       0.198058      0.464333      1.014392
H      -2.429557     -1.058830     -0.730530
H      -2.424743     -0.449577      0.980788
H      -0.551504      1.456743      0.885439
H      -1.764834      1.399493     -1.444512
H       0.369469     -1.967283     -1.077489
H       0.800459     -0.453469     -1.909567
H       2.078421     -1.423123      0.680636
H       1.613706      1.493921     -0.278815
H       2.343076      0.997133      1.301835
H       0.104911     -0.049276      1.974746
