17
Extracted from Q-Chem output
C       1.398517      0.863015      0.187997
C       0.861957     -0.490237     -0.248791
O       0.504323     -1.314109      0.865148
C      -0.558184     -1.020044      1.642961
C      -1.467168     -0.059256      1.527027
C      -0.510938      0.538586     -2.099137
C      -0.223697     -0.469631     -1.292318
H       0.619337      1.518041      0.574740
H       2.147412      0.717755      0.966522
H       1.880797      1.359133     -0.655283
H       1.695606     -1.052854     -0.681025
H      -0.606600     -1.732253      2.459893
H      -1.483849      0.664988      0.727147
H      -2.250374     -0.008609      2.270021
H      -1.275721      0.440227     -2.859402
H      -0.003007      1.494305     -2.038525
H      -0.763068     -1.408166     -1.388497
