11
Extracted from Q-Chem output
O      -2.055808      0.303871     -0.475027
C      -1.244601      0.137894      0.401458
N      -0.274130      1.398590      0.838180
C       0.792639      0.931858      0.205104
C       0.083353     -0.919076      0.039585
C       0.639767     -1.965054     -0.211954
H      -1.440100     -0.252696      1.414494
H      -0.175775      1.465123      1.843782
H       0.769479      0.977661     -0.878648
H       1.774527      0.883417      0.670265
H       1.139879     -2.877405     -0.445743
