13
Extracted from Q-Chem output
O      -1.701093      0.543257     -0.984885
C      -1.028852     -0.306686     -0.098105
C      -0.370496      0.238742      1.190103
N       0.922868     -0.436376      0.866659
C       0.340657     -0.848384     -0.459751
C       1.378862      0.190740     -0.364946
H      -1.728515     -1.109758      0.129069
H      -0.795788     -0.153164      2.112008
H      -0.287540      1.326522      1.263108
H      -1.085588      1.204428     -1.308488
H       0.541445     -1.818731     -0.897520
H       2.383454     -0.093964     -0.651238
H       1.143952      1.238844     -0.536114
