15
Extracted from Q-Chem output
O       2.048202     -0.981000     -0.251047
C       0.985564     -0.364117      0.428450
C       0.630493      1.056279     -0.096522
C      -0.775431      0.726766     -0.602847
C      -1.410895     -0.012610      0.583367
C      -0.364004     -1.026201      0.115359
O      -0.573584     -0.564906     -1.249727
H       1.784772     -1.047401     -1.174792
H       1.237730     -0.388248      1.488890
H       0.637996      1.826870      0.674839
H       1.304425      1.353599     -0.899722
H      -1.309540      1.448452     -1.216795
H      -1.323305      0.419973      1.580644
H      -2.425416     -0.344347      0.373874
H      -0.447008     -2.103110      0.246028
