15
Extracted from Q-Chem output
O       2.082539     -1.159703      0.279329
C       0.985105     -0.299492      0.449334
C       0.971186      0.897969     -0.479801
C      -1.130909      1.122683     -0.082813
C      -1.533830     -0.161241      0.629521
C      -0.365317     -0.805739     -0.073593
O      -0.459498      0.145081     -1.205839
H       2.117735     -1.454577     -0.634077
H       0.970089     -0.029821      1.503274
H       1.092506      1.890912     -0.075732
H       1.555312      0.756611     -1.394023
H      -1.932774      1.661192     -0.591959
H      -1.516016     -0.173811      1.720211
H      -2.477163     -0.590033      0.267646
H      -0.393778     -1.852595     -0.377751
