17
Extracted from Q-Chem output
C       1.659121     -0.859082     -0.149402
C       0.329592     -0.166730      0.013112
C      -0.545313      0.085873     -1.215626
C      -1.793242      0.497590     -0.460915
C      -0.750223     -0.761473      0.900299
O      -1.198635      0.993928      0.937713
C       0.204291      1.183195      0.722383
H       2.311035     -0.273528     -0.800561
H       1.536257     -1.844837     -0.601870
H       2.166355     -0.984476      0.809793
H      -0.087963      0.789640     -1.924030
H      -0.713555     -0.863789     -1.738515
H      -2.329351      1.358826     -0.859670
H      -1.347576     -1.584803      0.529344
H      -0.566954     -0.797927      1.973551
H       0.418709      2.076515      0.133024
H       0.708430      1.224939      1.690588
