15
smiles: [C:1](/[C:2](=[C:3](/[C:4]([H:12])([H:13])[H:14])[H:11])[H:9])([H:6])([H:7])[H:8].[O:5]([H:10])[H:15]
C        1.97836300       0.10019800      -0.49676600
C        0.64292200      -0.57012400      -0.42444400
C       -0.48228400      -0.08571100      -0.93032400
C       -1.81763500      -0.75616800      -0.85758700
O       -0.55583600       1.22781200       2.11408900
H        1.91593400       1.05744900      -1.01672000
H        2.70404500      -0.52558900      -1.02308900
H        2.38216500       0.28191800       0.50288600
H        0.61281500      -1.53111300       0.08692400
H       -0.38252300       0.72415100       1.31781700
H       -0.45235600       0.87521900      -1.44179300
H       -2.22273200      -0.93573600      -1.85712000
H       -1.75454400      -1.71447600      -0.33970500
H       -2.54296200      -0.13163400      -0.32920000
H       -0.15182000       2.08401800       1.96708500
