14
Extracted from Q-Chem output
N       1.854455      0.355713      1.822434
C       0.739658      0.344140      1.013528
O       0.394427      1.610919      0.685392
C       0.059203     -0.749653      0.641122
C      -1.171392     -0.713776     -0.175321
C      -1.236916     -0.030979     -1.480254
O      -1.161481     -1.434307     -1.405272
H       2.426099      1.177795      1.723391
H       2.376397     -0.502541      1.844451
H       0.397952     -1.715498      0.993517
H      -0.421587      1.583544      0.178451
H      -2.119838     -0.831657      0.348743
H      -0.345121      0.453427     -1.871563
H      -2.183519      0.368851     -1.835873
