14
Extracted from Q-Chem output
N       1.341485      0.526968      2.019372
C       0.997952      0.428320      0.742286
O       1.121341      1.439548     -0.045778
C       0.568808     -0.720933     -0.016820
C      -0.899863     -0.820726     -0.295707
C      -1.667327      0.180432     -1.036584
O      -1.322381     -1.049377     -1.639045
H       1.797684      1.355694      2.358989
H       1.158437     -0.227298      2.653049
H       0.993423     -1.674074      0.297352
H       0.984277      0.533232     -0.825992
H      -1.479034     -1.427927      0.402052
H      -1.168070      1.056074     -1.440443
H      -2.723093      0.314882     -0.814220
