12
Extracted from Q-Chem output
O       0.325006      0.450430      1.601478
C       1.383407      0.935104      0.872152
C      -0.344095     -1.634925     -0.938347
C      -1.045002     -0.732115     -0.055808
C      -0.465947      0.584270      0.360998
C       0.786388      1.089788     -0.306467
N      -1.227802     -0.996834     -1.540951
H       2.350799      1.087198      1.332157
H       0.403873     -2.388582     -1.137367
H      -1.835151     -1.109274      0.588678
H      -1.242358      1.333493      0.531973
H       1.050134      1.435048     -1.289564
