13
Extracted from Q-Chem output
C      -1.817525      0.196575     -0.006362
C      -0.536075     -0.449785      0.449033
C       1.397508      1.145511     -0.229592
C       1.845926     -0.258154     -0.094678
O       0.470039     -0.222110     -0.557191
H      -2.598807      0.022322      0.735091
H      -1.670875      1.271490     -0.114733
H      -2.149640     -0.216157     -0.959669
H      -0.632763     -1.534322      0.554247
H      -0.180117     -0.013117      1.383689
H       1.614894      1.438603     -1.267186
H       2.463768     -0.776836     -0.827100
H       1.933272     -0.685278      0.904111
