13
Extracted from Q-Chem output
C      -1.732665      0.360703     -0.028005
C      -0.591166     -0.471038      0.481187
C       0.893784      0.766794     -0.217893
C       1.974676     -0.197345     -0.042656
O       0.830284     -0.869604     -0.537731
H      -2.666891     -0.064317      0.357519
H      -1.637917      1.403430      0.265461
H      -1.788627      0.307946     -1.116886
H      -0.844707     -1.529657      0.382116
H      -0.270096     -0.250433      1.491071
H       0.916509      1.202777     -1.223868
H       2.759265     -0.239890     -0.793980
H       2.297158     -0.500627      0.953325
