7
Extracted from Q-Chem output
C      -0.926408      0.206005     -0.676605
C       0.336403     -0.002645     -0.177061
C       1.403645     -0.602625      0.242913
H      -1.420040      1.159011     -0.544427
H      -0.213650      0.460160      0.745528
H      -1.491328     -0.601816     -1.130181
H       2.338145     -0.618847     -0.311068
