15
Extracted from Q-Chem output
O       2.564804      0.748621      0.748651
C       1.819041      0.203567     -0.179393
C       0.381171      0.038876      0.155146
O      -0.369155      0.978900      0.726815
C      -1.569410      0.218286      0.419092
C      -1.735008      0.199205     -1.037341
C      -0.744533     -0.763418     -0.369547
H       1.811700     -0.177676      1.777412
H       1.632481      0.870721     -1.068191
H       2.148799     -0.762899     -0.620911
H       1.173118     -0.695783      1.884926
H      -2.293227      0.080543      1.206958
H      -1.367771      1.026690     -1.631773
H      -2.627314     -0.290432     -1.407596
H      -0.798767     -1.835083     -0.464088
