12
Extracted from Q-Chem output
C      -1.668364     -0.035483      0.874035
C      -0.242592     -0.325607      0.799785
C       0.425019     -0.220961     -0.455921
O      -0.113335      0.164145     -1.536839
C       1.844061      0.544195     -0.089626
O       2.603285      0.281190      0.776728
H      -1.816687      0.961989      0.436251
H      -2.192842     -0.686137      0.162037
H      -2.101900     -0.105254      1.867452
H       0.966546     -1.231631     -0.435252
H       0.343929     -0.610345      1.668350
H       1.974504      1.318484     -0.867482
