17
Extracted from Q-Chem output
C      -0.368283      1.869928      0.178966
C      -0.412688      0.557036     -0.569385
C       0.688583     -0.417033     -0.769395
C       1.991253     -0.124850     -0.068209
N      -0.426643     -0.673563      0.252048
C      -1.394937     -1.738398      0.043478
H       0.377057      1.876836      0.974525
H      -1.339143      2.128633      0.609436
H      -0.099452      2.659986     -0.524597
H      -1.205355      0.539650     -1.318274
H      -0.220761     -0.486838      1.228824
H       2.558224     -1.044956      0.088705
H       2.599759      0.506767     -0.720143
H       1.929298      0.390497      0.908979
H      -2.353437     -1.491991      0.506553
H      -1.005462     -2.665848      0.464056
H      -1.514122     -1.868395     -1.029271
