17
Extracted from Q-Chem output
C      -0.346026      1.784477      0.022169
C      -0.374066      0.357356     -0.472182
C       0.855105     -0.463554     -0.686775
C       2.075406      0.067922      0.019445
N      -0.496775     -0.669211      0.571683
C      -1.586428     -1.602860      0.253979
H       0.329075      1.916603      0.865066
H      -1.344064      2.092805      0.339023
H      -0.033655      2.452406     -0.783946
H      -1.122786      0.234785     -1.257764
H       0.377498     -1.373402      0.173146
H       2.876528     -0.670440      0.035417
H       2.422510      0.921625     -0.574369
H       1.906704      0.431560      1.037132
H      -2.529500     -1.065218      0.366643
H      -1.568079     -2.436450      0.956338
H      -1.522238     -1.989580     -0.769449
