18
smiles: [C:1](/[C:2](=[C:3](\[C:4]([H:12])([H:13])[H:14])[C:5](=[C:6]([H:16])[H:18])[H:15])[H:10])([H:7])([H:8])[H:9].[H:11][H:17]
C       -1.89006000      -1.64300700      -0.40889400
C       -0.45144900      -1.29704300      -0.20411300
C        0.07387600      -0.17282000       0.29411600
C       -0.72850000       1.00544900       0.76402700
C        1.53698400      -0.07496800       0.38966800
C        2.22709200       0.95949200       0.85939500
H       -2.08130700      -1.87167600      -1.46096600
H       -2.57132100      -0.84794700      -0.11170800
H       -2.15254800      -2.53973900       0.15928200
H        0.25080700      -2.07173100      -0.50474800
H        0.58302700       1.64202600      -2.71422600
H       -0.46363300       1.90179500       0.19748500
H       -0.52123500       1.21617000       1.81628700
H       -1.79934500       0.84821100       0.65984900
H        2.08180600      -0.94575100       0.03361100
H        1.74839400       1.85797100       1.23045500
H        0.88291600       1.33243100      -2.10709900
H        3.30917800       0.93832100       0.88869200
