19
smiles: [C:1]([C:2]([C@@:3]1([H:13])[C:4]([H:14])([H:15])[C@:5]1([C:6](=[O:7])[H:18])[H:16])([H:11])[H:12])([H:8])([H:9])[H:10].[H:17][H:19]
C       -2.06495300      -0.30575100       0.87607800
C       -1.02506300       0.68064700       0.35846500
C       -0.40584700       0.24767700      -0.94971600
C        0.98779100       0.59526700      -1.31646800
C        0.63991700      -0.85202700      -1.03433000
C        1.17219000      -1.47618100       0.19034800
O        1.44245500      -2.64389900       0.29189600
H       -2.86129200      -0.45571700       0.14350900
H       -2.52274100       0.05208400       1.79945700
H       -1.61843200      -1.28203600       1.07817000
H       -0.24833000       0.83386400       1.11226400
H       -1.48706800       1.66075600       0.20669000
H       -1.11081800       0.21002800      -1.77408300
H        1.22647700       0.85314600      -2.33912900
H        1.58796100       1.10606200      -0.57182200
H        0.57331200      -1.53105400      -1.87458900
H        1.98672600       1.88474600       2.46178600
H        1.33105400      -0.78998900       1.04949900
H        2.35284200       1.23633900       2.47249300
