12
Extracted from Q-Chem output
C       1.796012     -0.216154      0.072238
C       0.316994     -0.136841      0.148820
N      -0.448364     -1.029636      0.732445
N      -1.845159     -0.613113      0.554784
C      -1.816601      0.552395     -0.166379
O      -2.718509      1.242076     -0.574200
N      -0.435010      0.857761     -0.326525
H       2.131639     -0.177727     -0.965517
H       2.129437     -1.148547      0.521838
H       2.255430      0.615836      0.609024
H      -1.207068     -1.691161      0.164649
H      -0.110658      1.707174     -0.756684
