12
Extracted from Q-Chem output
O      -0.837636      1.329469      0.290238
C      -0.541153      0.014164      0.719636
C      -1.373106     -1.028637     -0.065085
C       0.842087     -0.467571      0.640231
C       1.730019      0.227509     -0.120135
C       2.564650      0.818685     -0.785218
H      -0.268137      1.550906     -0.451969
H      -0.857982     -0.037710      1.766463
H      -1.040586     -1.086089     -1.103397
H      -2.409074     -0.692241     -0.052756
H      -1.297544     -2.016411      0.385514
H       3.374532      1.244879     -1.330830
