12
Extracted from Q-Chem output
O      -1.269202      1.238986     -0.316857
C      -1.027586      0.181901      0.552379
C      -0.784440     -1.184618     -0.080822
C       0.354035     -0.186050      0.940865
C       1.352488      0.382291      0.099999
C       2.213981      0.944236     -0.527957
H      -0.426783      1.541308     -0.676470
H      -1.771512      0.192672      1.342080
H      -0.673614     -1.155332     -1.158102
H      -1.349228     -2.010347      0.340072
H       0.273655     -1.473462      0.454476
H       3.018077      1.416604     -1.041064
