14
Extracted from Q-Chem output
C      -2.235388     -0.166821      0.644504
C      -1.134005      0.056347     -0.360319
O       0.077311      0.333555      0.377855
C       1.204455      0.317208     -0.271700
O       1.251794      0.169736     -1.547999
C       2.516380      0.338939      0.267400
H      -2.011847     -1.020854      1.284335
H      -2.370784      0.712558      1.274647
H      -3.172633     -0.362773      0.121727
H      -0.960711     -0.816318     -0.991774
H      -1.340713      0.908354     -1.009388
H       2.684448      0.041209      1.295488
H       3.052310      1.239049     -0.026541
H       2.402703     -0.074580     -1.186822
