14
Extracted from Q-Chem output
C       2.336852      0.368392     -0.322197
N       1.138448      0.227667      0.480615
C      -0.075914     -0.018737     -0.059642
O      -0.120038      0.002928     -1.357090
N      -1.153708     -0.254417      0.636871
C      -2.722238     -0.384428     -0.322967
N      -2.629258     -0.304058     -1.499816
H       2.160804      1.072428     -1.132833
H       2.661497     -0.581985     -0.752485
H       3.130420      0.760105      0.311771
H       1.237477      0.076503      1.467137
H      -1.068008     -0.202652      1.640786
H      -3.412366     -0.522256      0.496300
H      -1.129357     -0.117899     -1.631608
