17
Extracted from Q-Chem output
C       1.806836      0.314028     -0.377108
C       0.607551     -0.563374     -0.035680
C       0.139345     -0.362489      1.418227
C      -0.920436      0.657296      1.505184
O      -1.466833     -1.343005     -0.894533
C      -1.296354      0.882720      0.086477
C      -0.651540     -0.182120     -0.814324
H       2.667215      0.045595      0.238432
H       1.600056      1.373132     -0.199871
H       2.095859      0.199647     -1.423538
H       0.850578     -1.607141     -0.243815
H       0.912615     -0.300458      2.185761
H      -0.501941     -1.216407      1.720369
H      -2.320515     -1.098868     -1.256481
H      -2.359601      1.070833     -0.082093
H      -0.809834      1.862524     -0.071733
H      -0.421243      0.186841     -1.821102
