11
Extracted from Q-Chem output
O      -2.890535     -1.201332     -0.105145
C      -1.801144     -0.788638     -0.097374
C      -0.596094     -0.289516     -0.039701
C      -0.196402      1.185511      0.019684
N       1.265993      1.140192      0.047930
C       1.618679     -0.072976     -0.017833
N       0.622402     -1.029976     -0.165992
H      -0.571614      1.703090      0.905820
H      -0.533205      1.740363     -0.859392
H       2.652986     -0.399013      0.000729
H       0.724491     -1.893958      0.342827
