13
Extracted from Q-Chem output
C      -1.678694     -0.999579      0.236010
C      -0.654726     -0.037152     -0.225120
C       1.381455      1.069344      0.147679
C       0.834585     -0.306046     -0.415786
C      -0.703151      1.308379     -0.365230
N       0.354972      1.988999     -0.421645
H      -1.254984     -1.658866      0.999127
H      -2.545950     -0.484031      0.649460
H      -2.028471     -1.645994     -0.574822
H       1.389500      1.068763      1.241818
H       2.370523      1.352795     -0.215323
H       1.153162     -1.199022      0.129683
H       1.160934     -0.415441     -1.454627
