15
smiles: [C:2]1([H:9])=[C:3]([H:10])[C@:4]2([H:12])[C:5]([H:13])([H:14])[C@@:6]1([H:15])[O:7]2.[O:1]([H:8])[H:11]
O        2.51057300      -0.96132900      -1.39097800
C        0.55638800       0.16519900       1.17216000
C        0.24193900       1.31722600       0.59298800
C       -0.84041900       0.86792000      -0.39582700
C       -1.72680800      -0.03087800       0.50136200
C       -0.38472000      -0.80168400       0.44332600
O       -0.25546100      -0.35132900      -0.93491300
H        2.51939500      -1.54076000      -2.15393800
H        1.27528300      -0.06858900       1.94224300
H        0.62496000       2.31486600       0.74355900
H        1.61609400      -0.62206600      -1.33902100
H       -1.22643900       1.55887800      -1.14093600
H       -2.06861200       0.35797200       1.45911700
H       -2.52097800      -0.52792400      -0.05558200
H       -0.28944200      -1.87526800       0.58525800
