15
Extracted from Q-Chem output
O       2.112357     -0.588389     -0.551047
C       0.854029     -0.177837      0.579811
C       0.552646      1.121466      0.018504
C      -0.808953      0.767264     -0.569691
C      -1.518495     -0.023700      0.558903
C      -0.379634     -0.978610      0.159331
O      -0.541752     -0.542120     -1.206692
H       1.669267     -1.113187     -1.236749
H       1.372296     -0.377720      1.509391
H       0.678041      2.024050      0.604045
H       1.767447      0.451273     -0.778271
H      -1.328575      1.468180     -1.217224
H      -1.526504      0.410012      1.558328
H      -2.490774     -0.429308      0.277176
H      -0.403961     -2.057200      0.306603
