11
Extracted from Q-Chem output
C      -0.972514     -1.044794      0.265312
C      -0.107556      0.134762     -0.007065
N      -0.679070      1.287659     -0.227069
O      -1.909631      1.514758     -0.235423
C       1.310567      0.087318     -0.040082
C       2.508808      0.024611     -0.062319
H      -1.653420     -1.210548     -0.572849
H      -0.367797     -1.933001      0.429451
H      -1.597666     -0.854584      1.140886
H      -0.051756      2.077901     -0.409761
H       3.571931     -0.029474     -0.082314
