11
Extracted from Q-Chem output
C      -0.946654     -0.976075      0.303676
C      -0.027394      0.150850     -0.033543
N      -0.485367      1.272601     -0.438523
O      -1.819261      1.548370     -0.598514
C       1.388429      0.009069      0.087247
C       2.567609     -0.164002      0.207764
H      -1.975615     -0.674643      0.117201
H      -0.701925     -1.849566     -0.302176
H      -0.828687     -1.250996      1.352946
H      -0.803911      2.291775     -0.801815
H       3.617884     -0.304852      0.311774
