9
Extracted from Q-Chem output
N      -1.524365     -0.255052      0.098550
C      -0.151551     -0.218293      0.097360
N       0.593655     -1.243293      0.383162
O       1.877385     -0.787435      0.349319
N       1.926755      0.513250      0.031000
C       0.702986      0.899572     -0.127638
H      -1.912886     -1.183917      0.110341
H      -1.975971      0.355791     -0.559553
H       0.463992      1.919377     -0.382540
