14
Extracted from Q-Chem output
O       1.783889      1.087422      0.857372
C       1.723395     -0.055262      0.047010
C       0.415950     -0.804554      0.120465
C      -1.509387     -0.753334     -0.654859
C      -1.857242      0.531815     -0.052968
O      -0.511218      0.607137     -0.483703
H       1.068861      1.663511      0.575352
H       1.964446      0.171949     -0.999318
H       2.487767     -0.748385      0.415323
H       0.498808     -1.743510     -0.416506
H       0.057669     -0.951309      1.133146
H      -1.709379     -0.733373     -1.732669
H      -2.001160      0.615801      1.024380
H      -2.451768      1.231688     -0.635263
