10
smiles: [C:1]([C:2](=[O:3])[H:9])([H:6])([H:7])[H:8].[C:4]=[N:5][H:10]
C       -1.75572200      -0.80177500       0.09942100
C       -0.40518500      -0.15211200       0.07927900
O        0.25864300       0.00878200      -0.90724100
C        3.60401400       1.75939100       0.16861600
N        2.65080800       1.24826000      -0.25735600
H       -2.05788200      -1.09245700      -0.90487800
H       -2.48641400      -0.11090400       0.52791400
H       -1.72711800      -1.67919900       0.75091400
H       -0.02792900       0.19064600       1.06627600
H        1.83415400       0.81033800      -0.62282600
