10
Extracted from Q-Chem output
N       3.219325      1.169927     -0.767724
C       2.348482      0.858583     -0.087665
C       0.271709     -0.233767      0.379306
C       1.283580      0.478311      0.787501
O      -2.153682      0.925832     -0.583328
C      -1.987107     -0.260218     -0.546869
C      -0.756639     -0.922029     -0.021346
H       1.341554      0.803669      1.820760
H      -2.761484     -0.961689     -0.909510
H      -0.729561     -2.006363      0.014324
