13
Extracted from Q-Chem output
O       2.080169      0.613261      0.458761
C       1.005651      0.482500     -0.055761
C       0.329821     -0.842852     -0.273810
C      -0.645533     -1.160959      0.862760
C      -0.862902      1.867352     -1.006903
N       0.308315      1.679768     -0.445411
H      -0.183858     -0.861439     -1.235601
H       1.129037     -1.582240     -0.302347
H      -1.078967     -2.150419      0.718104
H      -0.130670     -1.153659      1.824086
H      -1.301300      0.868505     -1.181200
H      -1.462666     -0.439743      0.909241
H       0.866418      2.494757     -0.207875
