13
Extracted from Q-Chem output
O       2.389284      0.707481     -0.300959
C       1.209222      0.490653     -0.305590
C       0.555015     -0.889256     -0.242720
C      -0.699610     -0.840027      0.604009
C      -1.115877      1.129839     -0.206417
N       0.225698      1.474470     -0.245984
H       0.316505     -1.195303     -1.265328
H       1.299379     -1.581943      0.147430
H      -1.482978     -1.525502      0.290083
H      -0.489606     -0.964411      1.669286
H      -1.385614      0.544567     -1.092073
H      -1.316729      0.245378      0.743142
H       0.511729      2.310255      0.242093
