14
Extracted from Q-Chem output
C      -0.197027      1.360282      0.040103
C      -0.333220     -0.136445      0.090069
C      -1.562312     -0.677225      0.547970
O       0.786442     -0.891578      0.468444
C       2.008190     -0.712645     -0.078972
O       2.319742      0.075629     -0.913995
H      -1.125559      1.786237     -0.335872
H      -0.053935      1.695629      1.069583
H       0.635427      1.682992     -0.575338
H      -0.153996     -0.393726     -1.431468
H      -1.614703     -1.723115      0.806340
H      -1.037917     -0.641324     -0.883443
H      -2.369825     -0.001688      0.778227
H       2.689503     -1.439498      0.383478
