15
Extracted from Q-Chem output
O       2.497243      0.477395      1.145083
C       1.889711      0.317419     -0.113119
C       0.526470     -0.336269     -0.000734
O      -0.305407      0.441575      0.863024
C      -1.635626      0.069848      0.559792
C      -1.564264     -0.320672     -0.919020
C      -0.182778     -0.747312     -1.209812
H       1.885269      0.963383      1.703820
H       1.773795      1.281588     -0.623827
H       2.539454     -0.314389     -0.716821
H       0.661673     -1.361683      0.428851
H      -2.292847      0.911829      0.774480
H      -1.565257      0.591935     -1.548933
H      -2.354764     -0.957670     -1.313209
H      -1.946307     -0.786512      1.173677
