15
Extracted from Q-Chem output
O       2.461064      0.767207      0.781216
C       1.672694      0.177003     -0.226226
C       0.469707     -0.521402      0.371547
O      -0.387998      0.387948      1.106313
C      -1.569423     -0.029916      0.474766
C      -1.371317      0.105150     -1.002901
C      -0.552540     -1.108242     -0.629965
H       1.899549      1.368396      1.277523
H       1.359245      0.922607     -0.966128
H       2.298702     -0.558883     -0.733910
H       0.816023     -1.280279      1.078710
H      -2.508931      0.213189      0.964956
H      -0.866261      1.027619     -1.271685
H      -2.229651     -0.114153     -1.630658
H      -1.533803     -1.244610      0.519066
