10
Extracted from Q-Chem output
O       2.218395     -0.017231      0.185987
C       0.887320      0.065831      0.082524
C      -0.108321     -0.887812      0.470493
N      -1.293028     -0.325663      0.240691
N      -1.216471      0.934648     -0.240723
C       0.055733      1.203903     -0.314026
H       1.226954     -0.476670     -0.886982
H       0.008999     -1.896720      0.832202
H      -2.197918     -0.757024      0.307275
H       0.404477      2.157175     -0.680667
