12
Extracted from Q-Chem output
O       1.122104      2.261701      0.110628
C       0.496974      1.206031      0.093056
C      -0.896271      1.443244      0.195523
C      -0.895760     -1.292067      0.065428
O       0.365419     -1.141480     -0.514698
C       1.143275     -0.163135      0.118468
H      -1.357945      1.659500     -0.777082
H      -1.502920     -0.356974      0.007401
H      -0.836360     -1.559549      1.126732
H      -1.432779     -2.060645     -0.487452
H       2.096891     -0.096131     -0.403740
H       1.337010     -0.418016      1.171263
