11
smiles: [C:1]([C:2]#[C:3][H:10])([H:7])([H:8])[H:9].[N-:4]=[N+:5]=[N:6][H:11]
C       -1.66901900      -0.02293600      -0.13871000
C       -0.71095600       0.92876500       0.40864900
C        0.07863200       1.70935800       0.85579800
N        2.25350500      -1.23532700      -1.88211600
N        1.98858700      -1.19576500      -0.79632600
N        1.76542400      -1.29500100       0.41044200
H       -1.85322700       0.18060300      -1.19439300
H       -1.29236900      -1.04261700      -0.04798100
H       -2.61993400       0.03827500       0.39206400
H        0.78109600       2.40372500       1.25167500
H        1.28021900      -0.46588200       0.74066300
