14
Extracted from Q-Chem output
C       1.805262     -0.569709      0.013418
N       0.999556     -1.750663      0.050852
C       0.690165     -0.748608     -0.998953
C      -0.236931      0.335958     -0.915649
C      -1.038860      0.445007      0.299922
N      -1.527484      1.780227      0.567828
H       2.812438     -0.683311     -0.367760
H       1.678427      0.190798      0.777264
H       0.326688     -1.700654      0.806617
H       1.019796     -1.066069     -1.980694
H      -1.697225      2.255416     -0.308777
H      -0.621745      0.021707      1.228328
H      -1.830274     -0.277815     -0.019552
H      -2.376455      1.775207      1.115031
