15
Extracted from Q-Chem output
C       0.760902      1.132622      0.309255
C       1.281525     -0.142312     -0.337084
C       0.377738     -1.337025      0.060784
O      -0.579570     -1.040924      1.028046
C      -1.429745     -0.039262      0.481154
C      -0.558750      0.807233     -0.429662
C       0.241723     -0.107737     -1.419513
H       0.737419      1.199309      1.399474
H       1.256195      2.009727     -0.103217
H       2.329520     -0.386672     -0.491341
H       0.942195     -2.237534      0.283788
H      -1.835825      0.536712      1.314012
H      -2.252212     -0.507091     -0.074084
H      -1.124103      1.602850     -0.913737
H      -0.173364     -1.603963     -0.924326
