12
Extracted from Q-Chem output
N       1.939113      0.033179      0.303676
C       0.666608      0.136343     -0.371504
C      -0.225871      1.327826     -0.162042
C      -1.472926      0.763970      0.077241
C      -1.389884     -0.639286      0.132099
N      -0.163178     -1.051524     -0.078959
H       2.600952      0.645287     -0.153807
H       1.840556      0.384373      1.249021
H       0.836349      0.126023     -1.457988
H      -2.398301      1.296999      0.251214
H      -2.181435     -1.358124      0.319934
H       0.154954     -2.005165     -0.089497
