18
smiles: [C:1]([O+:2]=[C-:3][H:11])([H:7])([H:8])[H:9].[C:4]([C:5]([H:13])([H:14])[H:15])([C:6]([H:16])([H:17])[H:18])([H:10])[H:12]
C        2.59287900       0.46725600       1.04536100
O        1.68556200      -0.64032800       1.15866400
C        1.65464800      -1.47054000       0.17132900
C       -1.10887400       0.12669400      -1.12249800
C       -0.96997100       1.32763000      -0.19535200
C       -2.06696100      -0.92570100      -0.57890200
H        3.13069900       0.38753400       0.10178500
H        3.27153200       0.42436000       1.89580300
H        2.00375300       1.38214500       1.08826700
H       -0.12547100      -0.32478100      -1.28472800
H        0.89117200      -2.21167800       0.50203800
H       -1.45462500       0.46288100      -2.10466900
H       -0.27365700       2.06731200      -0.59506500
H       -1.93338200       1.82250300      -0.04815300
H       -0.60325200       1.02288000       0.78824300
H       -2.15840600      -1.77603800      -1.25733100
H       -1.72379600      -1.30598300       0.38669300
H       -3.06644600      -0.50835500      -0.43181900
