16
smiles: [C:1](=[C:2]=[C:3]1[C:4]([H:11])([H:12])[C@@:5]2([H:13])[C@:6]1([H:15])[N:7]2[H:16])([H:8])[H:9].[H:10][H:14]
C        2.44638100       0.42492500       1.63744800
C        1.36327000       0.06916800       1.00953600
C        0.28106400      -0.29528200       0.39949300
C       -0.07958300      -1.41722700      -0.58128900
C       -1.53700100      -0.96742900      -0.44494600
C       -1.15618300       0.12090100       0.49286200
N       -1.58353300       0.42664000      -0.88824200
H        3.09088600       1.20349700       1.24466300
H        2.73730500      -0.04447000       2.57081300
H        0.09925800       3.29974900      -0.61819400
H        0.11138000      -2.40253000      -0.15561300
H        0.34136600      -1.34679900      -1.58412500
H       -2.42026400      -1.59011400      -0.44972500
H       -0.16681000       2.65265900      -0.87290000
H       -1.67407600       0.53460100       1.34625600
H       -2.54959300       0.73855000      -0.84033500
