12
smiles: [H:8][H:11].[N:1](=[C:2]1/[C:3]([H:9])([H:10])[O:4]/[C:5]1=[N:6]\[H:12])\[H:7]
N        1.29761000      -0.30960000       0.91673400
C        0.27763700       0.11617100       0.33770500
C       -0.67620800      -0.44296900      -0.69497800
O       -1.42108600       0.80934400      -0.62824300
C       -0.57603500       1.35378300       0.30901300
N       -0.56413500       2.45813400       0.88470100
H        1.65891400       0.39261500       1.56226500
H        1.46746900      -2.73342100      -0.27154400
H       -0.26056700      -0.60664200      -1.68895700
H       -1.28603300      -1.28749600      -0.37529600
H        1.31306100      -3.27510200      -0.75847800
H       -1.33236600       3.05852500       0.59506000
