12
Extracted from Q-Chem output
N       1.736923     -0.333788      0.061612
C       0.572391      0.152116     -0.378250
C      -0.572777     -0.585774     -0.925421
O      -1.549148      0.172199     -0.432085
C      -0.565967      0.917248      0.347367
N      -0.748446      1.724439      1.255121
H       2.233167      0.368785      0.598139
H       0.709279     -1.778478      0.660000
H       0.583839      0.681198     -1.412259
H      -0.760593     -1.307230     -1.709442
H       0.012984     -2.123613      0.536033
H      -1.726728      1.879175      1.484361
