15
Extracted from Q-Chem output
C      -2.215110      0.445693      0.146071
C      -1.329462     -0.429312     -0.728134
N       0.092372     -0.124675     -0.571069
C       0.761284     -0.538625      0.459329
O       0.760138     -1.144999      1.469127
C       2.479568      0.222798      0.042499
H      -3.269317      0.228546     -0.037424
H      -2.040361      1.502043     -0.064529
H      -2.010959      0.268747      1.203511
H      -1.507009     -1.486605     -0.510349
H      -1.563267     -0.272535     -1.781907
H       1.354117      0.318923     -0.677512
H       2.842516      0.835194     -0.800262
H       3.063521     -0.692917      0.052954
H       2.615678      0.805395      0.948974
