14
Extracted from Q-Chem output
C      -1.199506     -1.123616     -0.236751
C      -0.236229     -0.061410      0.180800
N      -0.484898      0.896432      1.001552
O      -1.890698      1.067936      1.101968
C       0.984642      0.133540     -1.130210
C       1.965495      0.611917     -0.167227
O       1.190470     -0.548621      0.296304
H      -1.944266     -0.679594     -0.895889
H      -0.689254     -1.927215     -0.764754
H      -1.711400     -1.521672      0.638974
H      -1.953637      1.793766      1.722937
H       1.356958     -0.570665     -1.876905
H       3.006607      0.325921     -0.267259
H       1.751426      1.498313      0.420009
