11
Extracted from Q-Chem output
C       1.441574     -0.363167     -0.097557
N       0.273164      0.107546      0.627140
C      -0.886255      0.722152     -0.220963
C      -2.062682     -0.057162     -0.190376
N      -3.026859     -0.685730     -0.089816
H       1.161435     -1.159028     -0.792958
H       2.194216     -0.722864      0.603371
H       1.864841      0.465952     -0.663406
H      -0.108285     -0.545051      1.297416
H      -0.117576      1.185725      0.805016
H      -0.505499      1.005401     -1.192707
