17
smiles: [C:1]([O:2][C@@:3]1([H:11])[C:4]([H:12])([H:13])[O:5][C:6]1=[C:7]([H:15])[H:17])([H:8])([H:9])[H:10].[H:14][H:16]
C        2.41586200       1.03719200      -0.49609200
O        1.22096500       1.15217100       0.23839200
C        0.21275900       0.32566100      -0.24391200
C        0.20755600      -1.15663000       0.18592000
O       -1.09853300      -0.97776100       0.77929300
C       -1.07630800       0.37584700       0.53426900
C       -1.93436500       1.29772200       0.92177200
H        2.83881300       0.02700700      -0.42785400
H        2.25557600       1.27844600      -1.55459500
H        3.12593400       1.74477400      -0.07219800
H        0.07539500       0.46233200      -1.32429800
H        0.95711700      -1.39469500       0.94342000
H        0.18924300      -1.91316700      -0.59914700
H       -2.58855500      -3.14711400      -1.24258100
H       -1.76656100       2.32843900       0.64566600
H       -2.43156300      -2.64386700      -0.71678200
H       -2.79383600       1.04319800       1.52682100
