14
Extracted from Q-Chem output
O      -0.976817      0.361337      1.203416
C      -1.227392      0.051568     -0.170107
C      -0.917057      1.414995      0.236383
O       1.593985     -0.515525      1.337378
C       1.882107     -0.360990      0.039033
N       1.130556     -0.435931     -0.972435
C      -0.247565     -0.872044     -0.854394
H       0.635251     -0.386829      1.482037
H      -2.269623     -0.193221     -0.362497
H       0.075613      1.809908      0.048384
H      -1.713290      2.146023      0.324555
H       2.940127     -0.151652     -0.106650
H      -0.624303     -1.035964     -1.866583
H      -0.303247     -1.842304     -0.341005
