14
Extracted from Q-Chem output
O      -1.055122     -0.183993      1.357227
C      -1.114837     -0.000045     -0.056545
C      -0.582375      1.334004      0.182886
O       1.306180      0.269683      1.147836
C       1.794185     -0.228590      0.051814
N       1.173570     -0.744902     -0.946729
C      -0.254337     -0.943352     -0.901905
H      -0.033101     -0.191020      1.521043
H      -2.158964     -0.031721     -0.366136
H       0.361146      1.690655     -0.198752
H      -1.204588      2.016583      0.746343
H       2.881939     -0.154650     -0.051823
H      -0.632532     -0.879547     -1.927023
H      -0.483188     -1.957854     -0.556607
