18
Extracted from Q-Chem output
C       2.125787      0.412242     -1.232291
C       1.119961     -0.615089     -0.753620
C       0.695768     -0.538185      0.670202
N      -0.222973     -0.230645     -0.708671
C      -1.129761     -0.600476      0.922888
C      -2.190866      0.420605      0.557370
O      -1.686185      1.729941      0.594307
H       2.060670      0.515984     -2.317212
H       3.147355      0.115986     -0.982391
H       1.916461      1.386599     -0.787206
H       1.346207     -1.631177     -1.108837
H       1.034711      0.330353      1.219137
H       0.787823     -1.491967      1.180033
H      -1.441401     -1.623183      0.732226
H      -0.930488     -0.472527      1.991267
H      -2.611774      0.177818     -0.422276
H      -2.983031      0.358200      1.310767
H      -0.984143      1.717528     -0.070452
