15
Extracted from Q-Chem output
O       2.627714      0.212612      0.344361
C       1.614025     -0.628724     -0.161760
C       0.285501     -0.031711      0.230363
C      -1.196864      1.522200     -0.524455
C      -2.038932      0.267027     -0.369375
C      -0.955061     -0.778464     -0.194220
O      -1.022082     -1.950851     -0.425374
H       3.480370     -0.123609      0.065612
H       1.671090     -1.637652      0.263749
H       1.671069     -0.722771     -1.252557
H       0.252699      0.194169      1.298119
H      -1.183587      2.062855      0.436207
H       0.173266      0.978624     -0.377332
H      -2.631896      0.033282     -1.254707
H      -2.690382      0.238486      0.511328
