12
Extracted from Q-Chem output
O       0.200308     -1.259629      1.060855
C      -0.921304     -0.685099      0.822406
C      -1.029690      0.689311      0.777169
C       0.094789      1.004569     -0.904470
C       1.108732      0.089423     -0.802455
C       1.384836     -0.908167     -0.083814
H      -1.733801     -1.311560      0.438917
H      -0.346453      1.271082      1.382275
H      -2.002968      1.130110      0.593482
H      -0.615787      0.889138     -1.718161
H       0.299087      2.041236     -0.655839
H       2.100606     -1.688710      0.077295
