12
Extracted from Q-Chem output
C      -1.369931     -0.209392      0.034429
O      -0.804235      1.039338     -0.317704
C       0.569633      0.879512     -0.575466
C       1.051226     -0.269839      0.278052
O       0.436272     -0.237972      1.548689
C      -0.464805     -1.080490      0.887658
H      -2.255416     -0.017162      0.648917
H      -1.687567     -0.779866     -0.847576
H       0.770856      0.677181     -1.637045
H       1.067615      1.809382     -0.293902
H       2.118727     -0.468071      0.351713
H       0.659320     -1.305219     -0.141098
