10
Extracted from Q-Chem output
O       2.098761     -0.358482     -0.112234
C       0.826106      0.108627     -0.084129
N      -0.087434     -0.859585     -0.350432
C      -1.389674     -0.850415      0.151644
C      -1.695533      0.361721     -0.080764
N       0.566778      1.344868      0.115213
H       2.060221     -1.311382     -0.234226
H      -1.896545     -1.737351      0.507193
H      -1.868644      1.385380     -0.322888
H       1.400619      1.851490      0.394110
