15
Extracted from Q-Chem output
O       2.063959      0.911217     -0.522040
C       0.870196      0.273528     -0.254132
C       0.736974     -1.191243      0.209197
C      -0.611599     -1.091707     -0.473974
C      -1.418284      0.398910      0.796182
C      -0.216264      1.047731      0.408726
C      -0.186392      0.005081     -1.263168
H       2.434342      1.224374      0.307128
H       0.776276     -1.414321      1.276477
H       1.447537     -1.794672     -0.357071
H      -1.371658     -1.839831     -0.639709
H      -2.245149      0.247390      0.125049
H      -1.780087      0.622105      1.808159
H       0.024862      2.069577      0.717116
H      -0.579084      0.573445     -2.092143
