12
Extracted from Q-Chem output
O       2.188835     -0.866927      0.122762
C       1.550160     -0.048262      0.750075
C       0.622747      0.949786      0.257681
C      -0.462395     -0.208611     -1.043282
C      -1.246570     -0.068340      0.271830
O      -0.625016      1.082320      0.824853
H       1.752097      0.148898      1.828358
H       0.402962      0.665529     -1.036252
H       0.027710     -1.158849     -1.228432
H      -0.975209      0.173437     -1.927748
H      -1.091997     -0.942378      0.914456
H      -2.314036      0.114831      0.146734
