13
Extracted from Q-Chem output
N      -2.162203     -0.287209      0.400326
C      -0.865548      0.063609      0.088421
C      -0.295067      1.289468     -0.146232
C       1.126270      1.161519     -0.353837
C       1.323104     -0.220925     -0.082665
O       2.405521     -0.999109     -0.353261
N       0.111986     -0.890547      0.093964
H      -2.495877     -1.140003     -0.019859
H      -2.819370      0.466590      0.289702
H      -0.846697      2.217666     -0.185682
H       1.556898      0.573000      0.856732
H       3.028247     -0.437239     -0.824804
H       0.009265     -1.829978      0.436077
