14
smiles: [C:1]([C@@:2]1([H:10])[C:3]([H:11])([H:12])[C:4]1=[C:5]=[O:6])([H:7])([H:8])[H:9].[H:13][H:14]
C       -1.61446700      -0.64258900      -0.71006800
C       -0.39481000       0.17429200      -0.36881000
C       -0.15366900       0.63590100       1.04091400
C        0.69179600      -0.41762700       0.44342300
C        1.64283000      -1.26924500       0.55509700
O        2.50726900      -2.04316800       0.64962100
H       -1.88544000      -1.29513400       0.12148100
H       -2.46246200       0.00954800      -0.93074000
H       -1.43248800      -1.26949000      -1.58430900
H       -0.06619600       0.86045400      -1.14484000
H       -0.87021300       0.33309700       1.79743400
H        0.29532300       1.61069300       1.19603300
H        2.34448500       1.69607000      -0.54129300
H        2.36839200       2.36522000      -0.86699400
