15
Extracted from Q-Chem output
C      -2.052391     -1.026996      0.416011
N      -0.655470     -0.755678      0.179118
C       3.092473     -0.754127      0.165598
C       2.084949     -0.002111     -0.146069
C       1.080051      0.764425     -0.466165
C      -0.336885      0.412576     -0.203604
N      -1.219969      1.443218     -0.461753
H      -2.655594     -0.917300     -0.495631
H      -2.167513     -2.052376      0.765111
H      -2.487184     -0.370722      1.185206
H       3.460773     -1.501384     -0.527607
H       3.577016     -0.669331      1.131213
H       1.286011      1.711553     -0.956652
H      -2.153700      1.360954     -0.100972
H      -0.855721      2.378500     -0.481010
