15
Extracted from Q-Chem output
C      -2.648950     -0.401586      0.256074
C      -1.363634     -0.126862     -0.486634
O      -0.395385      0.341096      0.448935
C       0.812173      0.662469     -0.102435
N       1.860170      0.002004      0.334778
C       3.177611      0.130984      0.153914
H      -2.494338     -1.159545      1.025201
H      -3.016308      0.506081      0.736349
H      -3.413223     -0.760447     -0.435159
H      -0.983304     -1.030924     -0.977021
H      -1.516525      0.633325     -1.262113
H       0.918945      1.536752     -0.729390
H       3.818949     -0.596386      0.616535
H       1.586724     -0.752496      0.955092
H       3.548449      0.922169     -0.475545
