16
Extracted from Q-Chem output
C       2.088901     -0.176639      0.607186
C       0.425905     -0.194412     -0.852811
C      -0.596977     -0.277180      0.144452
O      -0.361252     -1.180352      1.060043
C      -1.459882      0.957355      0.403152
C      -2.006282     -0.069018     -0.512543
H       2.462242      0.269855     -0.317285
H       2.775955     -0.997785      0.827954
H       2.140270      0.599298      1.372142
H       0.806953     -1.129478     -1.244791
H       0.545105      0.681669     -1.485644
H       1.038592     -0.748359      0.907947
H      -1.847060      0.989040      1.412043
H      -1.157326      1.907037     -0.022176
H      -2.715474     -0.788847     -0.129193
H      -2.094373      0.150812     -1.567716
