15
smiles: [C:2](=[C:3]1[C:4]([H:12])([H:13])[C:5]([H:14])([H:15])[C:6]1=[O:7])([H:9])[H:10].[O:1]([H:8])[H:11]
O        2.44139300      -1.44632700       1.49928600
C        1.39776100       0.36914900      -1.01598500
C        0.10934500       0.34556300      -0.72291500
C       -1.18069000       0.89062000      -1.31801100
C       -1.98233100       0.22757300      -0.16208300
C       -0.65495800      -0.29242600       0.40247900
O       -0.35245900      -0.94467600       1.35648800
H        1.48752100      -1.39043500       1.56778000
H        2.10615900      -0.14052600      -0.37302900
H        1.78461700       0.88173600      -1.88921500
H        2.77150800      -1.25948400       2.37916800
H       -1.23837600       1.97888800      -1.34127600
H       -1.41428100       0.50564800      -2.31062000
H       -2.66807200      -0.56760100      -0.45624400
H       -2.50345100       0.91112200       0.50882000
