15
Extracted from Q-Chem output
O       2.214540     -0.044533      0.958134
C       1.544390     -0.339080     -0.523193
C       0.189074      0.026411     -0.196560
C      -0.773925      1.110331     -0.685662
C      -1.945035      0.200678     -0.209648
C      -0.904036     -0.892918      0.074752
O      -0.979654     -2.062170      0.373404
H       2.399491     -0.884441      1.402417
H       1.740497     -1.398933     -0.678049
H       2.122786      0.307926     -1.174108
H       1.104982      0.200885      1.062694
H      -0.710335      2.083983     -0.198469
H      -0.780880      1.261013     -1.767818
H      -2.679925     -0.068688     -0.968824
H      -2.465564      0.549887      0.682888
