17
Extracted from Q-Chem output
C       2.009528      0.437523      0.251256
C       0.583528      0.153870      0.413031
C       0.054335     -1.163492      0.581641
C      -0.815701     -0.943804     -0.839987
C      -1.624378      0.303257     -0.363506
C      -0.507592      1.152410      0.267923
O       0.083706     -0.666328     -1.749585
H       2.235021      1.498534      0.164568
H       2.252843     -0.066617     -0.696647
H       2.608144     -0.035645      1.031570
H      -0.673657     -1.268475      1.386922
H       0.769754     -1.979066      0.535788
H      -1.482798     -1.809912     -1.031098
H      -2.407507      0.039562      0.352595
H      -2.087185      0.797423     -1.217849
H      -0.183571      1.999797     -0.333823
H      -0.776584      1.536170      1.260073
