13
Extracted from Q-Chem output
C       1.744147      0.542580      0.153365
C       0.670904     -0.484531     -0.102530
C      -0.257950     -0.917103      1.008930
C      -0.748338     -0.086681     -0.103881
C      -1.706378      0.564923     -0.655982
N      -2.585084      1.278309     -1.127419
H       2.006375      1.071197     -0.764588
H       2.648272      0.069500      0.543067
H       1.402825      1.282176      0.879693
H       0.936105     -1.263668     -0.812062
H      -0.141114     -0.439829      1.976426
H      -0.568651     -1.955257      1.045894
H      -3.186285      0.820023     -1.806761
