13
Extracted from Q-Chem output
C       1.764580      0.481638      0.154744
C       0.519366     -0.302433     -0.180834
C      -0.403990     -0.795843      0.915314
C      -0.804486      0.312165      0.030407
C      -1.888874      0.747431     -0.679026
N      -2.837540      1.209448     -1.268016
H       2.059139      1.118717     -0.680897
H       2.594582     -0.191001      0.381937
H       1.592282      1.123473      1.020136
H       0.626769     -0.978763     -1.025871
H      -0.157584     -0.541632      1.942430
H      -0.858153     -1.774616      0.798526
H      -2.071431     -0.206185     -1.281669
