11
Extracted from Q-Chem output
N       2.022719      0.086617      0.578826
C       1.307622      0.131469     -0.549953
N       0.366325     -0.660696     -1.204871
N      -0.929089     -0.430042     -0.709468
C      -1.163701     -0.128227      0.547580
O      -2.490090     -0.076032      0.725678
N       1.087632      0.701905     -1.634695
H       1.526130     -0.314732      1.359067
H       2.563313      0.909984      0.788459
H      -1.654006     -0.630804     -1.389109
H      -2.648292      0.140457      1.645349
