10
Extracted from Q-Chem output
C       1.959390     -0.684788      0.802594
C       0.804297     -0.376605      0.285415
C      -0.339134     -0.063159     -0.211746
C      -1.434075      0.855997     -0.454064
N      -1.390203     -0.503778     -1.039842
H       2.888271     -0.419144      0.309442
H       2.027544     -1.218198      1.744605
H      -1.245225      1.708045     -1.099272
H      -2.203545      0.997318      0.295826
H      -1.134857     -0.497689     -2.021383
