13
Extracted from Q-Chem output
C       1.637383     -0.253751      0.644552
C       0.590879      0.556484      0.665919
C      -0.425905      0.006647     -0.256961
C      -1.228823      1.227701     -0.491994
C      -0.816492      0.818663      0.915177
O       1.522930     -1.233812     -0.337742
C       0.113203     -1.341578     -0.644772
H       2.547114     -0.287386      1.222392
H      -2.280962      1.091274     -0.726362
H      -0.777216      2.114919     -0.931780
H      -1.415881      0.675358      1.801948
H       0.005568     -1.546204     -1.708868
H      -0.311418     -2.170889     -0.068019
