15
Extracted from Q-Chem output
C      -2.011096     -0.303225      0.210750
C      -0.707115     -0.618079      0.638380
O       0.175076     -1.478786     -0.164834
C       1.028224     -0.548991     -0.815330
C       1.597215      0.273462      0.363211
C       0.156201      0.857789      0.338338
C       0.123436      0.620661     -1.065471
H      -2.870636     -0.789925      0.658241
H      -2.202648      0.499410     -0.485383
H      -0.659768     -1.057993      1.638396
H       1.636343     -1.032303     -1.574010
H       1.898615     -0.282346      1.251157
H       2.350397      1.001159      0.070054
H      -0.216006      1.707718      0.895211
H      -0.265541      1.125182     -1.936392
