15
Extracted from Q-Chem output
C      -1.872166     -0.099470     -0.130754
C      -0.606778      0.744692     -0.062606
O      -0.424677      1.288960      1.222915
C       0.606548     -0.057702     -0.516626
C       1.990474      0.417798     -0.326981
N       1.178200     -0.909971      0.535562
H      -2.723573      0.476466      0.231402
H      -2.081946     -0.421441     -1.153627
H      -1.771187     -0.992208      0.493318
H      -0.700008      1.602973     -0.733778
H      -0.216992      0.563760      1.819258
H       0.401101     -0.632782     -1.419082
H       1.959572     -0.191756      0.947152
H       2.646095     -0.113994     -1.027827
H       1.560971     -1.774986      0.177518
