15
Extracted from Q-Chem output
C      -2.523356     -0.178690     -0.313209
N      -1.204019     -0.654105     -0.715334
C      -0.154619      0.117696     -0.229287
N       0.374045     -0.064904      1.192336
C       1.190128     -0.013109      0.095384
O       0.230143      1.355533     -0.571705
C       2.608157     -0.092936     -0.266805
H      -3.278873     -0.842325     -0.732504
H      -2.736833      0.848296     -0.629622
H      -2.598691     -0.232365      0.773505
H      -1.125387     -0.725679     -1.720510
H       0.369052      0.782926      1.761155
H       2.973287     -1.085820      0.004097
H       2.728635      0.054449     -1.337623
H       3.195337      0.650376      0.274621
