16
Extracted from Q-Chem output
C       1.591088     -0.927137      0.641101
C       0.540042      0.090589      0.254097
C       0.828780      1.074226     -0.818831
C       0.761702      1.517175      0.605376
C      -2.050418      0.358175     -0.058196
N      -1.664637     -0.963860     -0.541308
C      -0.879178     -0.336665      0.514739
H       1.475087     -1.211890      1.688547
H       2.598047     -0.528464      0.511713
H       1.497833     -1.823061      0.023538
H       1.828831      1.077833     -1.243517
H       0.080076      1.470236     -1.498500
H      -1.891333      1.215845     -0.701561
H      -2.973168      0.387943      0.507618
H      -1.173566     -0.886558     -1.425796
H      -1.003036     -0.800422      1.488364
