16
Extracted from Q-Chem output
C       1.624706     -0.733773      0.883923
C       0.470192     -0.113192      0.152420
C       0.646781      0.779705     -1.037666
C       0.129362      1.355974      0.230823
C      -1.796209      0.386369      0.180973
N      -1.830109     -0.551969     -0.843947
C      -0.890776     -0.768697      0.233483
H       1.358371     -0.935933      1.924433
H       2.483293     -0.061386      0.889869
H       1.929004     -1.675591      0.419355
H       1.671186      1.068296     -1.248613
H       0.051147      0.685974     -1.940331
H      -1.011985      1.619978      0.316658
H      -2.644800      0.711636      0.768005
H      -1.484847     -0.307495     -1.765809
H      -1.042550     -1.661988      0.827406
