14
smiles: [C:1]([O+:2]=[C:3]=[C:5]([O-:6])[H:14])([H:7])([H:8])[H:9].[C:4]([H:10])([H:11])([H:12])[H:13]
C        1.91833200      -0.24389500      -0.64311100
O        1.22914100       0.12517700       0.56753600
C        0.57026600       1.22319300       0.55435300
C       -1.80975900      -0.95600900      -0.97168800
C       -0.10583500       1.46024200       1.84899800
O       -1.22698100       1.08621000       2.08347100
H        2.97238700      -0.35454200      -0.39564900
H        1.50890900      -1.19782900      -0.96972300
H        1.76044800       0.53316200      -1.38861300
H       -1.25322600      -0.26689000      -1.60506600
H       -1.25866100      -1.89095500      -0.88282400
H       -1.94101200      -0.51584900       0.01565600
H       -2.78495400      -1.15039400      -1.41566100
H        0.45385000       2.13176800       2.53880600
