13
Extracted from Q-Chem output
N      -1.954162      0.762632     -0.272647
C      -0.717125      0.146522     -0.103647
C      -0.365711     -1.123059     -0.308840
N       1.035017     -1.276290     -0.154628
C       1.634180     -0.104136      0.203089
O       2.803624      0.062735      0.456870
C       0.515398      0.937983      0.225064
H      -2.725973      0.120745     -0.361873
H      -2.154596      1.468149      0.418873
H      -0.976149     -1.966635     -0.591823
H       1.531883     -2.147225     -0.184268
H       0.485436      1.419498      1.205402
H       0.719933      1.712825     -0.517121
