11
Extracted from Q-Chem output
C      -1.067649     -0.535061     -0.053827
C       0.080033     -0.546839      0.930727
C       1.276140     -0.285351     -0.003108
O       0.727939      0.730728     -0.863531
C      -0.483863      0.837011     -0.166092
H      -2.051607     -0.609661      0.399407
H      -0.967169     -1.106678     -0.972866
H      -0.152191      0.946701      1.003644
H       1.564004     -1.192350     -0.546986
H       2.149871      0.121012      0.509353
H      -1.088083      1.722046     -0.349686
