16
smiles: [C:1]([H:8])([H:9])([H:10])[H:15].[C:2](\[C:3]([O:4][H:14])([H:12])[H:13])(=[N:5]\[C:6](=[O:7])[H:16])[H:11]
C       -1.03174700       1.92911700      -1.34184600
C        0.49813800      -0.40156900       1.60701900
C       -0.65848000      -1.13334700       0.95817400
O       -0.33916600      -2.49851200       0.84429100
N        1.53242700       0.00018700       0.99857100
C        1.73483000      -0.24181600      -0.35089000
O        1.73582200      -1.33738500      -0.85914700
H       -1.01822800       2.85580400      -1.91357700
H       -2.05903000       1.67944700      -1.08049400
H       -0.60423400       1.12626800      -1.94049100
H        0.47151700      -0.25816100       2.68756000
H       -1.54698300      -1.06352600       1.58579200
H       -0.88866000      -0.68222300      -0.01516200
H        0.41345600      -2.55968300       0.24061300
H       -0.44619400       2.05456900      -0.43241000
H        1.98981700       0.66511700      -0.92084000
