11
Extracted from Q-Chem output
N       1.036333      0.936745      0.488942
C      -0.170154      1.308861      0.384618
C       1.160204     -0.439917     -0.006195
C      -0.234867     -0.889266     -0.377699
O      -1.127255     -0.878340      0.724957
C      -1.104497      0.261251     -0.135039
H       1.602792     -1.064347      0.772508
H      -0.476664      2.309744      0.674769
H       1.834894     -0.447693     -0.865499
H      -0.426884     -1.637470     -1.138366
H      -2.022972      0.482474     -0.665212
