11
Extracted from Q-Chem output
N       0.925858      0.591854      1.338638
C       0.101321      0.999189      0.325904
C       0.966764     -0.140253     -0.200746
C      -0.359053     -0.910591     -0.514450
O      -1.064110     -1.084500      0.687286
C      -1.194486      0.152036      0.008431
H       1.329853     -0.550144      0.887813
H       0.209517      1.985308     -0.121431
H       1.774215      0.070841     -0.885608
H      -0.486900     -1.625140     -1.315694
H      -2.184089      0.487399     -0.269612
