14
Extracted from Q-Chem output
C      -2.173881      0.051164      0.339956
C      -0.773544      0.267960      0.295242
O      -0.473820      1.171718      1.161131
C       0.263991     -0.398512     -0.481614
C       1.535480      0.380749     -0.757025
C       1.569980     -0.734955      0.211921
H      -2.610180     -0.891406      0.025893
H      -1.663847      0.887859      1.449980
H      -2.724602      0.923078     -0.012244
H      -0.085966     -1.075429     -1.247814
H       1.568164      1.389163     -0.369394
H       1.976260      0.239500     -1.734182
H       2.040283     -1.664697     -0.077322
H       1.620967     -0.487965      1.263772
