12
Extracted from Q-Chem output
C      -1.798672     -0.017813      0.156380
N      -0.406604     -0.074136     -0.234441
C       0.429767     -1.007552      0.122376
C       1.713399     -0.984242     -0.394631
N       2.688320     -0.356145     -0.691833
C       2.339638      1.388222      0.025213
N       1.358087      2.019457      0.026779
H      -2.031260     -0.845211      0.825309
H      -2.439306     -0.075196     -0.724342
H      -1.983774      0.924698      0.670162
H       0.032590      0.794709     -0.586511
H       0.110635     -1.788992      0.802767
