16
smiles: [C:1]([C@@:2]([C:3]([O:5][H:16])([H:12])[H:13])([C:6]#[N:7])[H:11])([H:8])([H:9])[H:10].[C:4]([H:14])[H:15]
C       -2.18718600      -0.26901400      -0.41323500
C       -0.73111700      -0.71378200      -0.27878200
C        0.21744400       0.47777900      -0.07493500
C        2.50976000       1.46479100       0.35736700
O        1.56759400       0.10166200      -0.01943300
C       -0.56336900      -1.65095600       0.83605300
N       -0.39998800      -2.34980100       1.73183800
H       -2.28930600       0.40970000      -1.26097400
H       -2.52186800       0.24930500       0.48651500
H       -2.84496800      -1.12175600      -0.57684000
H       -0.41392900      -1.23934700      -1.18378700
H        0.11547500       1.14424200      -0.93307800
H       -0.08773200       1.03372600       0.82053100
H        3.47581300       0.91833300       0.35715300
H        2.47304600       1.87197700      -0.67456700
H        1.72671900      -0.38549300       0.79321200
