14
Extracted from Q-Chem output
C      -1.581637     -0.263048     -0.553390
C      -0.237817      0.356063     -0.185121
O      -0.359060      1.254319      0.899243
C       0.672611     -0.787311      0.287129
C       2.272034      0.002366     -0.104968
O       2.231757     -0.659912      1.002128
H      -2.289258      0.526325     -0.814980
H      -1.489773     -0.929997     -1.412123
H      -1.992150     -0.818848      0.291961
H       0.184849      0.855737     -1.059741
H      -0.767434      2.064148      0.589727
H       0.717242     -1.634006     -0.381869
H       0.308181     -1.048710      1.284710
H       2.366963      1.101539      0.123647
