11
Extracted from Q-Chem output
C      -1.173374     -1.550663     -0.086862
C      -0.658664     -0.289913     -0.719213
O       1.045405      2.228967      1.120751
C       0.283043      0.462796     -0.227648
C       1.252228      1.190573      0.250185
H      -2.242571     -1.464615      0.121851
H      -0.653126     -1.763377      0.846020
H      -1.043128     -2.399765     -0.762374
H      -1.121667      0.009254     -1.658348
H       1.883100      2.658853      1.293828
H       2.283073      0.990045     -0.028277
