14
Extracted from Q-Chem output
C      -2.284005      0.180694      0.099768
C      -0.990882     -0.285168     -0.316907
C      -0.348860     -1.462971     -0.370504
O       1.076628     -1.277789     -0.146790
C       1.256744      0.001831      0.022330
N       2.510927      0.421698      0.164470
C       0.061570      0.746949     -0.022567
H      -0.879997      0.748039      0.892009
H      -3.088441     -0.539811      0.207512
H      -2.591047      1.137370     -0.315675
H      -0.657860     -2.488214     -0.278053
H       3.265891     -0.239205      0.137958
H       2.699857      1.378968      0.390544
H       0.050178      1.743018     -0.448615
