19
Extracted from Q-Chem output
C       2.314184      0.213891      1.360911
C       0.852657      0.542434      1.093891
C       0.332594     -0.085660     -0.195771
O       0.467579     -1.494227     -0.185889
C      -1.121004      0.298806     -0.480162
C      -1.580438     -0.139325     -1.858284
O      -1.891527     -0.323237      0.545583
H       2.462481     -0.864533      1.424374
H       2.955522      0.588865      0.558961
H       2.655501      0.660653      2.296212
H       0.226746      0.201916      1.923985
H       0.717622      1.627226      1.028154
H       0.945291      0.263391     -1.033995
H      -0.223823     -1.827364      0.395679
H      -1.210994      1.390144     -0.391722
H      -1.432468     -1.212309     -1.985504
H      -2.638340      0.092813     -2.009340
H      -1.016430      0.381929     -2.633965
H      -2.815154     -0.315412      0.291757
