14
Extracted from Q-Chem output
C      -1.356500     -0.370741      0.089620
C      -0.737456      0.840674     -0.322913
C      -0.755629      1.988231      0.505393
N      -0.736487      2.915394      1.187942
C       0.639965     -0.424803      0.547758
O       0.952559     -0.091832      1.646377
C       1.458976     -0.785974     -0.661426
H      -1.894673     -0.386541      1.032314
H      -1.737975     -1.042508     -0.675398
H      -0.362328     -1.251434      0.490408
H      -0.559645      1.010850     -1.375336
H       2.076897     -1.642902     -0.387248
H       2.110864      0.048012     -0.914296
H       0.836453     -1.043541     -1.514559
