14
Extracted from Q-Chem output
C       1.595723      0.759049      0.228972
N       0.472873     -0.159183      0.397164
C       0.188116     -1.102232     -0.611310
O      -0.267801     -0.256574     -1.670266
N      -1.197105     -1.509740     -0.357556
C      -1.443495     -0.122482     -0.813087
N      -1.164220      0.760718      0.255790
H       1.587636      1.113225     -0.798501
H       2.529914      0.236506      0.429304
H       1.478734      1.590587      0.921935
H       0.411656     -0.541114      1.334038
H      -1.431260     -1.669774      0.619529
H      -2.365550      0.099689     -1.348902
H      -0.848824      1.648936     -0.130322
