16
Extracted from Q-Chem output
C      -0.893891     -1.078619     -1.414172
C      -1.103598     -0.952626      0.028881
C      -0.007099     -0.287082      0.777370
C       1.415810     -0.245403      0.215445
C      -0.561914      1.145053      1.024910
O      -0.623523      1.941189     -0.136891
H      -0.224699     -0.366855     -1.910598
H      -1.818106     -1.212052     -1.975391
H      -0.384737     -2.062646     -1.434263
H      -1.577908      1.082473      1.413223
H       0.017413     -0.725054      1.782066
H       2.087017      0.259706      0.914969
H       1.805567     -1.253020      0.059735
H       1.476115      0.274886     -0.742059
H       0.068699      1.612868      1.789398
H       0.263127      2.215557     -0.375209
