11
Extracted from Q-Chem output
O      -0.717448      2.095221      1.103625
C       0.147546      1.200551      0.809890
C       1.462256     -1.068914     -0.144983
O       0.069223     -0.935838     -0.457385
C      -0.599783      0.122996     -0.021564
N      -1.828072      0.318969     -0.245070
H      -1.603823      1.832091      0.711000
H       2.033926     -0.229277     -0.536059
H       1.770059     -1.993182     -0.627924
H       1.616672     -1.136924      0.930757
H      -2.283691     -0.403085     -0.791812
