14
smiles: [H:11][H:12].[O-:1][C+:2]([N:3]([C:4](=[C:5]([C:6]#[C:7][H:14])[H:13])[H:10])[H:9])[H:8]
O       -3.17727400      -0.30701600      -0.10900300
C       -2.36633800       0.44868500       0.35885400
N       -1.01597000       0.37513400       0.14474500
C       -0.42559800      -0.59206300      -0.64468000
C        0.89141700      -0.67075000      -0.85795300
C        1.81082600       0.24958600      -0.28121800
C        2.55816000       1.04246800       0.22414000
H       -2.63671400       1.28942400       1.01918500
H       -0.41778500       1.05852300       0.58262000
H       -1.12432600      -1.29143900      -1.08257600
H        0.59082300      -1.23839900       2.76016500
H        1.03867000      -0.84639400       2.31280600
H        1.27740500      -1.45815000      -1.49024800
H        3.23845000       1.73433700       0.66177400
