14
Extracted from Q-Chem output
O      -2.952786     -0.394908      0.703003
C      -2.232086      0.548594      0.509240
N      -0.904435      0.438476      0.196339
C      -0.267761     -0.794078      0.081975
C       1.123704     -0.823670     -0.347753
C       1.921017      0.302117     -0.075677
C       2.543898      1.300234      0.199101
H      -2.574142      1.595100      0.555571
H      -0.315653      1.256007      0.122778
H      -0.900082     -1.600293     -0.271806
H      -0.378378     -1.242336      1.478077
H       0.522585     -1.262316      1.016419
H       1.428689     -1.600482     -1.029908
H       3.130499      2.152475      0.445513
