13
Extracted from Q-Chem output
N       1.768652     -1.130776     -1.076547
C       1.268324     -0.048194     -0.734932
O       1.876702      1.234781     -0.601064
C       0.594824      1.661068     -0.211498
C      -0.046943      0.497772     -0.315221
C      -1.395435     -0.098217     -0.105773
N      -1.446757     -1.180114      0.869862
H       2.760066     -1.041332     -1.287918
H      -1.082634     -0.869241      1.761097
H       0.412610      2.692833      0.049012
H      -1.769697     -0.489554     -1.055035
H      -2.090296      0.687717      0.198022
H      -0.866730     -1.951918      0.566399
