13
Extracted from Q-Chem output
N       1.676041     -0.991450     -1.469078
C       1.202448     -0.128171     -0.692165
O       1.748640      0.772073      0.139953
C       0.374178      1.312193      0.584154
C      -0.188411      0.218730     -0.287933
C      -1.582018     -0.144365     -0.461191
N      -0.879069     -0.657022      0.736872
H       2.693420     -0.983386     -1.456142
H      -0.515416      0.201697      1.459737
H       0.307637      2.324317      0.178594
H      -1.848836     -0.911766     -1.177607
H      -2.343937      0.598520     -0.259946
H      -0.661995     -1.646547      0.761154
