16
smiles: [C:1]([C:2]1([O:3][H:10])[C:4]([H:11])([H:12])[C:5]1([H:13])[H:14])([H:7])([H:8])[H:9].[C:6]([H:15])[H:16]
C        1.45533800       0.43517400      -0.53939800
C        0.21867600      -0.39246600      -0.31447400
O        0.41352600      -1.49728700       0.52787100
C       -0.80542000      -0.53678700      -1.39985500
C       -1.10634900       0.26208200      -0.15278000
C       -0.27440300       1.10606600       2.20723400
H        1.23966600       1.30043500      -1.16798700
H        2.23276500      -0.15271000      -1.03566100
H        1.85090900       0.78879700       0.41458000
H        0.94978800      -2.14073700       0.05902400
H       -0.65471500      -0.00456400      -2.33072300
H       -1.29123200      -1.49915400      -1.49331500
H       -1.77996100      -0.18263100       0.56700800
H       -1.16027700       1.34041500      -0.23044100
H        0.01805200       0.06242000       2.44643200
H       -1.35529700       1.10779000       2.45981000
