16
Extracted from Q-Chem output
C       2.341892      0.360374     -1.087610
C       0.898957      0.138548     -0.762591
C       0.445366     -0.292618      0.406280
O      -1.283472      0.202296      1.986095
C      -0.992903     -0.514262      0.788584
C      -2.009008     -0.199290     -0.295836
H       2.983865      0.125025     -0.237839
H       2.522415      1.399273     -1.375925
H       2.650936     -0.260985     -1.932223
H      -1.079392      1.127716      1.829179
H       0.193225      0.347177     -1.562972
H       1.152606     -0.500701      1.207049
H      -1.108675     -1.564179      1.076930
H      -1.936536      0.844510     -0.613124
H      -3.013383     -0.366846      0.092913
H      -1.867426     -0.834479     -1.172197
