14
Extracted from Q-Chem output
O       1.510774     -0.946764     -1.085583
C       1.127988     -0.231702      0.064958
C       0.656200      1.216244     -0.219585
C      -0.804100      1.029819     -0.284912
C      -1.192896     -0.440898     -0.477529
C      -0.194498     -0.665886      0.659101
N      -0.592313      0.699338      1.171931
H       2.290912     -0.526214     -1.454637
H       1.929098     -0.241538      0.812833
H       0.077952      1.250940      1.712482
H      -1.451036      1.862298     -0.539401
H      -0.971293     -0.903791     -1.434977
H      -2.217981     -0.625299     -0.159092
H      -0.267960     -1.513538      1.336298
