14
Extracted from Q-Chem output
O       1.760430     -0.862014     -0.893448
C       1.174701     -0.259718      0.225054
C       0.671239      1.196930      0.070107
C      -0.779692      1.006544     -0.263248
C      -1.110050     -0.456565     -0.539551
C      -0.210344     -0.714430      0.664689
N      -0.582969      0.689641      1.169504
H       1.448741     -0.425293     -1.688154
H       1.896890     -0.332003      1.040064
H       0.367506      1.402279      1.360747
H      -1.389410      1.852473     -0.556302
H      -0.828210     -0.896594     -1.495394
H      -2.153941     -0.674797     -0.318934
H      -0.364044     -1.563442      1.326753
