13
Extracted from Q-Chem output
N      -2.043534      0.064851     -0.268002
C      -0.702686     -0.315870     -0.481306
O       0.221321      0.798445     -0.578300
C      -0.109344     -1.096079      0.684878
O       1.236717     -0.663691      0.749410
C       1.359920      0.509823      0.093510
N       2.408605      1.190922      0.138733
H      -2.156523      0.640097      0.555308
H      -2.450353      0.528490     -1.066129
H      -0.133462     -2.173221      0.533167
H      -0.626209     -0.851173      1.618443
H      -0.636178     -0.865128     -1.423004
H       2.319713      2.014083     -0.444936
