14
Extracted from Q-Chem output
C      -0.566308     -0.695304     -0.382808
C      -0.367868      0.411615     -1.406149
O       0.817805      1.098094     -1.020354
C       1.182270      0.741714      0.301695
C       0.018122     -0.058840      0.875758
O       0.504179     -0.962878      1.842453
H      -0.238940     -1.383438      2.276855
H       0.032129     -1.574189     -0.634462
H      -1.609276     -0.996964     -0.277620
H      -0.240766      0.038025     -2.423921
H      -1.212133      1.112337     -1.403922
H       1.396625      1.647318      0.872673
H       2.078751      0.110869      0.296645
H      -0.716520      0.621769      1.325566
