14
Extracted from Q-Chem output
O       1.431907      1.769064      0.976990
C       0.972210      0.862052      0.343746
C       1.416187     -0.258467     -0.483004
C       0.592900     -0.979509      0.554799
C      -0.819539     -0.564023      0.482827
C      -1.393005      0.029863     -0.753364
N      -0.677916      0.896084      0.205541
H       2.481106     -0.389683     -0.314268
H       1.195362     -0.315665     -1.558986
H       0.905984     -1.888958      1.041475
H      -1.509707     -0.850518      1.266874
H      -2.457755      0.228097     -0.802809
H      -0.904801     -0.090607     -1.710669
H      -1.159925      1.600869      0.743781
