11
smiles: [H:7][H:11].[O:1]=[C:2]=[N:3][C:4]([C:5](=[O:6])[H:10])([H:8])[H:9]
O        2.88160500      -0.18571000       0.23036100
C        1.76758700      -0.42704800       0.45187000
N        0.67301700      -0.85183800       0.72893200
C       -0.63312700      -0.29145000       0.71681200
C       -0.68700800       1.15199500       0.27796100
O        0.27711800       1.78456100      -0.04071700
H        0.14320900      -0.84851300      -2.19566000
H       -1.28968600      -0.86810100       0.05515400
H       -1.08556700      -0.35476400       1.71309000
H       -1.70150900       1.59698600       0.27101800
H       -0.38037100      -0.67849800      -2.69698700
