16
Extracted from Q-Chem output
C      -1.407799     -0.899669     -0.465193
C      -0.493546      0.280953     -0.190375
C      -1.183248      1.494425      0.405570
C       1.807906     -0.218116      0.797068
C       2.332957     -1.006333     -0.189449
O       2.119346     -1.748885     -1.106441
H      -2.180569     -0.615094     -1.184009
H      -1.906085     -1.234198      0.446979
H      -0.848921     -1.737783     -0.880534
H       0.062463      0.547954     -1.089270
H      -0.477414      2.300141      0.614244
H      -1.931020      1.880200     -0.291806
H      -1.694679      1.240741      1.336101
H       2.085163      0.835326      0.799259
H       0.252678     -0.088839      0.588596
H       3.377644     -0.899490      0.326427
