14
smiles: [C:1]([N:2]([H:11])[H:14])([H:8])([H:9])[H:10].[C:3](=[O:4])=[N:5][H:12].[C:6](#[N:7])[H:13]
C        1.52040000      -0.99848900       0.21473700
N        0.42966200      -0.38544600       0.95979500
C       -0.53635300       2.62478800      -1.03151300
O       -0.40635900       3.73026900      -1.35717200
N       -0.77224100       1.46559700      -0.78845000
C       -2.10116400      -1.31174800      -0.97829400
N       -2.09647700      -2.37819000      -0.56528000
H        1.14021800      -1.37787500      -0.73530100
H        2.02808300      -1.82596900       0.72858000
H        2.26908600      -0.23986100      -0.01952800
H        0.75960700      -0.01378300       1.83964700
H       -0.30522700       0.90827300      -0.09749400
H       -2.10629300      -0.31576100      -1.36471200
H       -0.28555400      -1.06607900       1.17495500
