13
Extracted from Q-Chem output
N      -1.809709      0.573402      0.268779
C      -0.621005      0.113639     -0.384446
C       0.481837     -0.545792      0.491815
N       1.229180     -1.629396     -0.069561
C       0.652931      0.782048     -0.085690
N       1.441796      1.748128     -0.196302
H      -2.152175      1.433561     -0.134559
H      -2.547167     -0.115595      0.223613
H       1.026748      2.489388     -0.761290
H      -0.680239     -0.324883     -1.381788
H       0.227277     -0.548994      1.552457
H       0.899268     -2.524091      0.262681
H       2.213016     -1.546270      0.143079
