13
Extracted from Q-Chem output
N      -1.739504      0.611608      0.350366
C      -0.583008      0.287028     -0.423118
C       0.572864     -0.391936      0.439601
N       1.208826     -1.535051     -0.153699
C       1.050788      0.889655      0.046176
N       1.536903      1.949707     -0.295353
H      -2.209468      1.441093      0.024024
H      -2.413146     -0.141020      0.410014
H       0.338018      1.635976     -0.755650
H      -0.679678     -0.262731     -1.361130
H       0.265506     -0.441353      1.486885
H       0.626848     -2.355062     -0.047597
H       2.107903     -1.722835      0.267385
