12
Extracted from Q-Chem output
N       1.482650      1.660742      0.170569
C       1.713899      0.508903      0.391056
C       1.174852     -0.731568      0.552998
O       0.085145     -0.690626      1.424424
C      -0.964581     -0.383908      0.505622
C      -0.837562      0.720855     -0.505583
C      -0.481643     -0.531439     -0.873336
H       1.694009     -1.670019      0.419144
H      -1.924484     -0.711284      0.891364
H      -1.476910      1.509434     -0.871495
H       0.427131      1.531658     -0.380582
H      -0.474874     -1.192900     -1.725065
