18
Extracted from Q-Chem output
C      -2.561788      0.410355     -0.436248
C      -1.051915      0.315938     -0.633710
C      -0.272290      0.287560      0.670391
C       1.503001     -1.368518      0.543894
O       2.462110     -0.508774      0.662302
C       2.337242      0.630418     -0.078715
H      -2.936377     -0.444772      0.131918
H      -3.091683      0.434065     -1.391274
H      -2.828722      1.314322      0.116426
H      -0.712381      1.159460     -1.244652
H      -0.829512     -0.581834     -1.222693
H      -0.450018      1.203157      1.246584
H      -0.617328     -0.525387      1.306641
H       1.492019     -2.147551      1.295355
H       1.066380     -1.549111     -0.433366
H       3.127207      1.332118      0.164995
H       0.952425      0.678845      0.354657
H       2.195705      0.452774     -1.146528
