9
smiles: [C:3]1([H:7])([H:8])[N:4]=[C:5]1[H:9].[O:1]=[C:2]=[O:6]
O       -1.88088600       1.81984700       0.50990600
C       -0.75617900       2.08817900       0.51333900
C       -0.23124400      -1.16832000      -0.24767800
N        1.03754200      -1.94764200      -0.56942900
C        1.15344700      -0.75651900      -0.23140500
O        0.36853600       2.35651300       0.51677300
H       -0.73938600      -1.43174200       0.67436600
H       -0.87203700      -0.91882000      -1.08725400
H        1.93080000      -0.02216700      -0.07465500
