9
Extracted from Q-Chem output
O      -1.591385      1.526077      0.142567
C      -0.532775      0.996245      0.358526
C      -0.508404     -0.566833     -0.125372
N       0.913226     -1.460464      0.059694
C       1.262052     -0.357821     -0.206070
O       0.546010      1.312551      0.893171
H      -1.047645     -1.067344      0.671121
H      -0.892556     -0.778190     -1.114359
H       1.855677      0.403128     -0.677610
