15
Extracted from Q-Chem output
C       2.525020      0.784408     -0.998377
C       1.428149      0.625595      0.003316
O       0.305622      0.547467     -0.641740
C      -0.900310      0.403785      0.132915
C      -1.737110     -0.841330     -0.255893
C      -1.598080     -1.209173      1.205020
C      -0.807673     -0.182715      1.513754
H       3.030366      1.729264     -0.776343
H       3.269617      0.007670     -0.805140
H       2.207527      0.761844     -2.045929
H      -1.430566      1.353649      0.048553
H      -2.743871     -0.647073     -0.631119
H      -1.210332     -1.495431     -0.952555
H      -2.022383     -2.018281      1.786204
H      -0.316284      0.157780      2.412025
