12
Extracted from Q-Chem output
O      -2.634331      0.274288     -0.543935
C      -2.147961     -0.097988      0.486601
C      -0.666920     -0.202331      0.744775
C       0.189662      0.327580     -0.355646
C       1.564597      0.363861     -0.259529
C       2.729562      0.504684      0.283809
H      -2.790131     -0.405470      1.336453
H      -0.451931     -1.255697      0.962487
H      -0.425174      0.322408      1.680295
H       1.427460     -0.283098     -1.222473
H      -0.295184      0.632064     -1.275790
H       3.537173     -0.200945      0.113179
