18
Extracted from Q-Chem output
C       2.058330      0.413630     -1.208920
C       1.217991     -0.532657     -0.399505
C       1.249436     -0.553504      1.083888
N       0.121457      0.019275      0.375128
C      -1.143708     -0.647927      0.401219
C      -2.225047      0.262242      0.131000
O      -1.998703      1.454193     -0.403631
H       1.576278      0.646499     -2.161341
H       3.037655     -0.020124     -1.422959
H       2.208180      1.347662     -0.665028
H       1.007177     -1.489027     -0.874020
H       1.883371      0.145318      1.619700
H       1.081999     -1.502488      1.583110
H      -1.238515     -1.675541      0.062221
H      -1.952188     -0.035793      1.477783
H      -3.208827     -0.149055     -0.059828
H      -2.677484      0.743027      1.612512
H      -1.032843      1.575724     -0.324264
