11
Extracted from Q-Chem output
O       1.853091     -0.244678     -0.712725
N       1.097177      0.606161     -0.095518
C      -0.104740      0.124611      0.338401
C      -0.698694      0.906165      1.265457
O      -0.503957     -0.190636     -1.703485
C      -0.680056     -0.924130     -0.566441
H       2.667425      0.237152     -0.908198
H      -0.301592      1.888518      1.485542
H      -1.598647      0.579696      1.767479
H      -1.722618     -1.145141     -0.288570
H      -0.110009     -1.870098     -0.528854
