19
smiles: [C:1]([C:2]([C:3]([C:4](=[C:7]([H:18])[H:19])[H:15])([H:13])[H:14])([H:11])[H:12])([H:8])([H:9])[H:10].[C:5](=[O:6])([H:16])[H:17]
C        2.55999400       0.26327500       0.01649900
C        1.25077600      -0.37085400       0.46591800
C        0.26712400       0.64951800       1.04102500
C       -1.00176500       0.02167300       1.52805300
C       -1.61826800      -0.73934500      -1.84130400
O       -0.85678300       0.05490200      -2.30956800
C       -2.21424500       0.29194700       1.06997600
H        2.38713900       1.01575200      -0.75678900
H        3.06399600       0.75755500       0.85083200
H        3.24537800      -0.48165200      -0.39141100
H        1.45268500      -1.13986800       1.21870900
H        0.77666600      -0.88472600      -0.37562500
H        0.03691200       1.40802300       0.28649800
H        0.75118300       1.17270700       1.87444600
H       -0.89030100      -0.72379100       2.31377300
H       -2.71434700      -0.58632400      -1.86854900
H       -1.26731700      -1.67019300      -1.35579200
H       -2.37283900       1.02603500       0.28629500
H       -3.09375400      -0.20396200       1.46235600
