16
Extracted from Q-Chem output
C      -2.477675     -0.352607      0.039924
C      -1.084364      0.173154      0.100449
C      -0.618467      1.436155      0.349436
C       0.821576      1.482095      0.334333
C       1.147180      0.139314     -0.081159
C       2.481982     -0.538458      0.001097
N      -0.018272     -0.631348     -0.155266
H      -2.618295     -1.180213      0.738821
H      -3.185470      0.433407      0.295773
H      -2.719565     -0.714564     -0.962221
H      -1.260864      2.278593      0.565173
H       1.182696      1.004109     -0.947753
H       2.617386     -1.289872     -0.780401
H       3.265865      0.210946     -0.090524
H       2.592081     -1.025524      0.971297
H      -0.074291     -1.595407     -0.433390
