16
Extracted from Q-Chem output
C       3.320407     -0.102157     -0.046098
C       0.940070     -0.264195      0.376998
N       1.937029      0.093440     -0.411710
O      -0.202589      0.039424     -0.245947
C      -1.377165     -0.259054      0.468618
C      -2.606481     -0.469922     -0.339312
C      -2.440738      0.781669      0.489697
H       3.340972     -0.561513      0.939628
H       3.825742     -0.760438     -0.756186
H       3.854180      0.849877     -0.008286
H       1.739681      0.519026     -1.311669
H      -1.185338     -0.859720      1.347433
H      -2.505222     -0.363279     -1.411311
H      -3.311073     -1.225560     -0.018714
H      -2.233223      1.699114     -0.044864
H      -3.027560      0.896902      1.391139
