14
Extracted from Q-Chem output
C       1.441134     -0.418885     -0.688456
C       0.182178     -0.034244      0.020024
C      -0.809621     -1.009884      0.602836
C      -1.257407     -0.007280     -0.405052
O      -1.510444      1.245365      0.218656
C      -0.121821      1.336833      0.603382
H       1.309489     -1.351378     -1.240094
H       2.259817     -0.569134      0.019928
H       1.744709      0.352144     -1.400135
H      -0.706782     -2.025238      0.237610
H      -1.151352     -0.916055      1.628265
H      -1.755025     -0.227229     -1.340896
H       0.006803      1.473415      1.681214
H       0.368321      2.151571      0.062718
