14
Extracted from Q-Chem output
C       1.615008     -0.442646     -0.592658
C       0.426689     -0.049423      0.222312
C      -0.769200     -0.897837      0.505695
C      -1.603342      0.013505     -0.305206
O      -1.475721      1.287192     -0.181565
C       0.017549      1.285846      0.535035
H       1.365556     -1.227301     -1.314674
H       2.448649     -0.829693      0.007231
H       2.002791      0.405539     -1.165433
H      -0.742076     -1.899845      0.076567
H      -1.110512     -0.974015      1.556181
H      -2.410034     -0.317655     -0.959786
H      -0.302069      1.527387      1.554563
H       0.539708      2.115397      0.064900
