14
smiles: [H:9][H:13].[N:1]#[C:2][C:3]1([H:8])[C:4]([H:10])=[C:5]([H:11])[C:6]([H:12])=[C:7]1[H:14]
N        0.18438100       3.17321300       0.06298100
C        0.19284200       2.10097900       0.46995500
C        0.20241300       0.73736100       0.99841400
C        1.50173500       0.00536600       0.76710100
C        1.24253500      -1.14981500       0.15116300
C       -0.19875500      -1.25906500      -0.10362300
C       -0.81848500      -0.17101500       0.35793800
H        0.00765900       0.80410200       2.07714000
H       -1.94661700      -0.24687000      -2.63236000
H        2.45998600       0.38851000       1.08462800
H        1.97288900      -1.89866700      -0.12212400
H       -0.67392000      -2.09915000      -0.59097800
H       -2.46267900      -0.40410300      -3.14573800
H       -1.87255400       0.05980800       0.31685700
