14
Extracted from Q-Chem output
N      -0.699104      3.181406     -0.129666
C      -0.448102      2.100347      0.158446
C      -0.132418      0.732299      0.554557
C       1.135436      0.138608     -0.022686
C       0.982615     -1.248501      0.082534
C      -0.372381     -1.539748      0.145369
C      -1.089374     -0.340479      0.080538
H      -0.071714      0.687420      1.648802
H       0.357400      0.285166     -1.381067
H       2.080662      0.664768     -0.019002
H       1.775124     -1.970642     -0.051142
H      -0.811364     -2.525016      0.075036
H      -0.555257      0.091353     -1.342909
H      -2.163867     -0.251233      0.179045
