11
Extracted from Q-Chem output
N       2.104068     -0.186710      0.564621
C       1.026399     -0.467901     -0.173206
C      -0.212676      0.003034     -0.735698
N      -2.284232      1.037563     -0.146960
C      -1.426469      0.141189      0.095202
N       0.444114     -1.385355     -0.795212
H       2.848081     -0.859396      0.624275
H       2.306823      0.767992      0.791377
H      -0.211314      0.596695     -1.646882
H      -3.059274      0.988341      0.509625
H      -1.516942     -0.591940      0.907386
