8
Extracted from Q-Chem output
O      -2.017661      0.356100      0.194427
C      -0.806382     -0.041558     -0.145810
N       0.234600      0.352935      0.460372
C       1.442063     -0.164524     -0.028795
O       2.510013      0.112232      0.427247
H      -0.828348     -0.731738     -0.993108
H      -1.928762      0.962360      0.943391
H       1.344199     -0.864942     -0.887108
