8
Extracted from Q-Chem output
O      -2.301800      0.184639     -0.034135
C      -1.181177     -0.142901     -0.302471
N      -0.068399      0.313485      0.370845
C       1.224516     -0.055763      0.067803
O       2.186649      0.345137      0.658299
H      -0.931377     -0.844981     -1.115839
H      -0.209653      0.961308      1.134155
H       1.281241     -0.760923     -0.778657
