14
Extracted from Q-Chem output
C       1.275357      0.434286     -0.916872
C       0.573320      0.149878      0.418189
C      -0.849023      0.745381      0.475733
C      -1.640627     -0.349223     -0.147394
O      -0.989081     -1.468147      0.039563
C       0.226574     -1.309210      0.527889
H       1.414923      1.508553     -1.063768
H       2.255109     -0.044566     -0.944119
H       1.185409      0.508695      1.244604
H      -0.940397      1.716397     -0.010826
H      -1.152972      0.855720      1.532362
H       0.683088      0.055165     -1.753919
H      -2.698034     -0.439621     -0.334323
H       0.874507     -2.165113      0.412963
