15
Extracted from Q-Chem output
C       1.506917     -0.638283      0.188177
C       0.341099     -0.151545      0.768125
C      -0.106081      1.260198      0.010067
O      -0.507212      0.962716     -1.272893
C      -1.482083      0.792395     -0.224503
C      -1.145560     -0.571889      0.326451
O      -1.215094     -1.617383     -0.586496
H       1.510049     -0.976838     -0.841355
H       2.374997     -0.895853      0.780754
H       2.122391      1.030321     -0.269830
H       0.391212      0.036623      1.836916
H       1.573248      1.648848     -0.207530
H      -2.421401      1.318831     -0.299962
H      -1.705344     -0.855513      1.216466
H      -0.954729     -1.268694     -1.445953
