10
Extracted from Q-Chem output
O       2.551752      0.611153      0.338934
C       1.758294     -0.282813      0.373352
N       0.390690     -0.061230      0.580436
C      -0.289607      0.841079     -0.141907
N      -1.650263      0.958001      0.151997
C      -1.745348     -0.314914     -0.116847
N      -0.532842     -0.961698     -0.264887
H       2.000837     -1.352704      0.312146
H       0.169006      1.380471     -0.971447
H      -2.667519     -0.861038     -0.295107
