17
smiles: [C:1]([H:8])([H:9])([H:10])[H:15].[C@@:2]12([H:11])[C@@:3]([O:4][H:13])([H:12])[C@:5]1([H:14])[C@@:6]2([O:7][H:17])[H:16]
C       -2.26152200      -0.81970500      -1.16346200
C        0.23153000       0.52252500       1.16405400
C        1.16273700      -0.64069700       1.17546800
O        1.21078100      -1.62228700       0.19346400
C        1.73101600       0.72408500       1.02183900
C        0.80343300       1.26694500       0.01520100
O        0.81639400       0.73207700      -1.29243400
H       -2.36339800       0.15512300      -0.68890600
H       -3.19069000      -1.37669300      -1.05289100
H       -2.04275600      -0.68630700      -2.22184600
H       -0.43952200       0.88054700       1.93023800
H        1.31306300      -1.10746300       2.14419000
H        1.16795200      -1.17287300      -0.65822000
H        2.41745100       1.26670300       1.65305800
H       -1.44901600      -1.36942600      -0.69087400
H        0.66796300       2.34708000       0.02105000
H       -0.06392100       0.83017700      -1.66328300
