16
smiles: [C:1]([C@@:2]1([H:11])[C:3]([H:12])([H:13])[O:4]1)([H:8])([H:9])[H:10].[N:5](=[C:6](/[O:7][H:14])[H:16])\[H:15]
C       -1.08777700       1.40719000       0.33698100
C       -1.54401500       0.05817600       0.80767900
C       -1.35316000      -1.15013500       0.01208100
O       -0.53042500      -0.87957800       1.13515400
N        1.53951500      -0.23915000      -1.46342300
C        2.42307500      -0.25940200      -0.56877800
O        2.12576800      -0.46665300       0.71884300
H       -0.75049000       2.01340300       1.17971300
H       -1.90665900       1.93591200      -0.15551500
H       -0.26128100       1.30683400      -0.36754900
H       -2.37359000       0.06191800       1.51301800
H       -2.03315400      -1.98976600       0.12543700
H       -0.85809100      -1.07729200      -0.95307400
H        1.16783900      -0.58186900       0.77086100
H        1.94278500      -0.07101700      -2.37746200
H        3.49735600      -0.11979400      -0.69822600
