17
Extracted from Q-Chem output
C       1.311874      1.473003     -0.032597
O       1.178903     -0.485653     -0.897339
C       0.378875     -1.339699     -0.179437
C       0.041196     -1.110505      1.267885
C      -1.011056     -0.878730      0.209417
C      -1.412000      0.530265     -0.184702
O      -0.436630      1.172486     -1.002081
H       1.959433      0.841718      0.552713
H       0.693508      2.153693      0.538585
H       1.767315      1.894810     -0.915353
H       0.487597     -2.382560     -0.472400
H      -0.074165     -1.969988      1.915798
H       0.450313     -0.237335      1.761359
H      -1.816356     -1.601146      0.157582
H      -2.340901      0.498502     -0.761168
H      -1.597569      1.166319      0.689885
H       0.207306      0.390988     -1.314948
