11
Extracted from Q-Chem output
C       1.612252      0.150095      0.103668
C       0.340027      0.237280     -0.698995
N      -1.958035     -0.572491      0.406080
C      -0.964848      0.165809     -0.107871
N      -0.654569      1.350519     -0.385918
H       2.349891      0.862295     -0.272761
H       1.424823      0.380609      1.153605
H       2.051798     -0.849009      0.042838
H       0.446037     -0.000287     -1.757942
H      -2.724426     -0.108568      0.861337
H      -1.789699     -1.534092      0.630178
