16
Extracted from Q-Chem output
C       2.998505     -0.183885      0.651707
O       2.144006     -0.035779     -0.488106
C       0.890700     -0.317989     -0.316763
C      -1.811187      0.135837      0.191716
C      -2.516158      0.992753     -0.824765
C      -1.441571     -1.148224     -0.083218
N      -0.821873     -2.115635     -0.344133
H       3.993707      0.110079      0.331702
H       2.998244     -1.224954      0.975793
H       2.655160      0.466505      1.457358
H       0.538580     -0.566066      0.667249
H       0.277607     -0.194288     -1.186894
H      -1.961107      0.375024      1.239537
H      -3.605628      0.898228     -0.762221
H      -2.274647      2.046597     -0.673700
H      -2.225393      0.723956     -1.842045
