17
Extracted from Q-Chem output
C      -2.126194     -0.120412      0.021713
C      -1.436865      1.011234     -0.721963
C      -0.679532     -0.165458     -0.265605
C       0.299460     -1.105820     -0.803140
C       2.624779     -0.151203      0.213595
C       1.581454      0.743099      0.709588
C       0.539763     -0.385067      0.549579
H      -2.778510     -0.774247     -0.543878
H      -2.443609      0.072613      1.038982
H      -1.632880      1.117204     -1.781564
H      -1.302574      1.945279     -0.189478
H       0.096312     -2.167471     -0.740197
H       0.909242     -0.802620     -1.641827
H       2.886868     -0.817640      1.059084
H       1.345384      1.583098      0.055529
H       1.587258      1.054229      1.757785
H       0.430101     -1.012310      1.424724
