14
Extracted from Q-Chem output
C       1.530810     -1.193414      0.421754
C       0.603088     -0.049243      0.524820
C       0.665634      0.975700     -0.515257
O      -0.342092      0.051871     -0.999231
C      -1.355123     -0.216685      0.033150
O      -1.746281     -1.338170      0.178851
N      -2.038586      0.930090      0.377978
H       2.041466     -1.299333     -0.542011
H       2.286612     -1.012336      1.196331
H       1.021978     -2.121699      0.683226
H       0.283077      1.972095     -0.299551
H       1.480121      0.977812     -1.240280
H      -2.944303      0.736232      0.768298
H      -2.011003      1.698896     -0.267565
