14
Extracted from Q-Chem output
N       2.535513     -0.190693      0.567203
C       1.388010     -0.197076      0.083559
O       0.643417     -1.186769     -0.489944
C      -0.515979     -0.314796     -0.701706
C      -1.736461     -0.779966      0.038917
C      -0.204044      1.781754      0.892452
C       0.286209      0.840162     -0.073256
H       2.983589     -1.101668      0.510424
H      -0.696015     -0.220532     -1.773974
H      -1.526408     -0.889243      1.104407
H      -2.085001     -1.736462     -0.352094
H       0.687498      2.166101      1.420712
H      -2.531587     -0.041682     -0.074983
H       0.582498      1.637555     -0.797300
