17
smiles: [C:3](=[C:4]([H:12])[H:13])([H:10])[H:11].[O:1](/[C:2](=[C:7](/[C:6](=[C:5]([H:14])[H:15])[H:16])[H:17])[H:9])[H:8]
O        2.51987500      -0.61292500      -0.11156000
C        1.62406000       0.35787000      -0.39611900
C       -0.65743700      -2.49874500       0.11107200
C       -1.57815100      -1.67322500       0.57834600
C       -0.87269600       2.02125400      -0.96446700
C       -0.06608200       2.08027500       0.09014800
C        0.90795500       1.05841200       0.48090900
H        2.53568500      -0.76949400       0.83654100
H        1.55741800       0.53086300      -1.46412300
H        0.26909000      -2.13312900      -0.31679700
H       -0.79142800      -3.57424100       0.13765100
H       -1.44416000      -0.59773100       0.55174100
H       -2.50467900      -2.03886500       1.00618900
H       -0.90614500       1.14869600      -1.60766000
H       -1.53524500       2.84154200      -1.21003600
H       -0.11625400       2.95571100       0.73303800
H        1.06807400       0.89793600       1.54496600
