7
smiles: [C:4](#[N:5])[H:7].[O:1]=[C:2]=[N:3][H:6]
O        2.55787900       0.97650600      -0.93657100
C        1.85494200       0.18374900      -0.46468300
N        1.02055700      -0.54877000       0.01013200
C       -2.19013000       0.26806200       0.34344500
N       -3.30300700       0.49452300       0.47806900
H        1.18636000      -1.47598900       0.35512100
H       -1.15074500       0.05521300       0.21794900
