7
Extracted from Q-Chem output
O       1.400713      1.217491     -0.052512
C       1.132076      0.051377      0.003967
N       0.208403     -0.820054      0.042164
C      -1.383072      0.016818     -0.009276
N      -1.207561      1.173503     -0.063820
H       1.888339     -0.829684      0.053345
H      -2.047737     -0.826264      0.027013
