15
smiles: [C-:4]([N+:5]1=[C:7]([H:15])[C:6]1([H:12])[H:13])([H:10])[H:11].[N:1]([C:2](=[O:3])[H:14])([H:8])[H:9]
N        2.25288500      -1.21964200      -1.80821500
C        1.09821700      -1.23729000      -1.10209800
O        0.84603600      -2.01341300      -0.21449400
C        0.19212600       1.35247400       1.43549800
N       -0.71642100       0.96236800       0.60482300
C       -1.79413700      -0.00787700       0.52270300
C       -1.49507500       1.06093600      -0.45758200
H        2.96923000      -1.89147100      -1.59423700
H        2.40926500      -0.54753500      -2.53490800
H        0.44331500       0.71002300       2.26460400
H        0.71035700       2.28208400       1.25015800
H       -1.51831000      -1.03444900       0.29316200
H       -2.53552700       0.10461400       1.31700300
H        0.39015400      -0.45232500      -1.42531000
H       -2.01666700       1.94194000      -0.79611200
