12
Extracted from Q-Chem output
C       1.532185      0.388231      0.320619
C       0.479663     -0.713172      0.462428
O      -0.654036     -0.131901      1.195157
C      -1.413323      0.288555      0.255171
O      -0.758353      0.897584     -0.736762
C       0.510651      0.219639     -0.739456
H       2.541085      0.089392      0.066250
H       1.463959      1.214702      1.013912
H      -0.595183     -1.584848     -0.231311
H      -1.445993     -1.315609     -0.428090
H      -2.441573      0.569709      0.444698
H       0.761122     -0.150160     -1.725236
