11
Extracted from Q-Chem output
N       1.435200      0.559056      0.615737
C       1.291525     -0.002826     -0.585053
O       0.699272     -1.088051     -0.701543
C      -1.302061     -0.933025      0.242200
C      -1.180887      0.431058      0.317536
O      -0.361090      0.948947      1.144604
H       1.770973      1.515637      0.534814
H       1.613652      0.538520     -1.491325
H      -0.870250     -1.552154      1.013471
H      -1.935746     -1.398361     -0.501950
H      -1.607619      1.057061     -0.474016
