13
smiles: [C:1]1([H:7])([H:8])[C@@:2]2([H:9])[C:3]([H:10])([H:11])[O:4][C@@:5]12[H:13].[H:6][H:12]
C       -0.79948000      -0.66038000      -0.62518900
C        0.31976400      -0.46724400       0.36493300
C        1.64153700      -0.52032000      -0.37740700
O        1.19159000       0.46489500      -1.33460000
C       -0.02882600       0.61052900      -0.62028500
H       -2.43570800       1.56835000       1.72933900
H       -1.79370100      -0.60618300      -0.19883800
H       -0.68346500      -1.34552900      -1.45799000
H        0.18432800      -0.51471800       1.43488400
H        1.92023400      -1.46563200      -0.85178000
H        2.48211900      -0.12852300       0.19962100
H       -1.76360500       1.57118700       2.04979100
H       -0.44386800       1.60332500      -0.50762900
