13
Extracted from Q-Chem output
C      -1.259111     -0.825527      0.013592
C      -0.016226     -0.097889      0.479834
C       1.286286     -0.349105     -0.295810
O       1.420727      1.041534     -0.619326
C       0.172480      1.354237      0.014168
H      -2.153848     -0.429527      0.499107
H      -1.201425     -1.892283      0.241401
H      -1.389697     -0.719418     -1.066404
H       0.111945     -0.210688      1.557267
H       1.171653     -0.965065     -1.194937
H       2.137920     -0.716065      0.283449
H       0.292724      2.107857      0.797092
H      -0.573428      1.701941     -0.709433
