13
Extracted from Q-Chem output
C      -1.070461     -0.379191      1.241439
C      -0.792517     -0.956976     -0.121415
N      -0.741260      0.062243     -1.123753
C       0.686170     -0.089036     -0.835090
C       1.333930      1.080740     -0.164462
O       2.506264      1.308449     -0.278534
H      -0.993802      0.705900      1.345770
H      -0.505665     -0.889008      2.022701
H      -2.119722     -0.647825      1.404161
H       0.697512     -1.082471     -0.163352
H      -0.908360     -0.345567     -2.035828
H       1.268564     -0.476701     -1.668345
H       0.665592      1.732559      0.424088
