14
Extracted from Q-Chem output
C      -1.737507      0.483376     -0.832776
C      -0.085014     -0.767659      0.655942
N       1.071842     -1.402542      0.860071
C       1.022425      0.053285      1.280630
C       1.476201      0.913950      0.295855
C      -0.830254     -0.698822     -0.610996
O      -0.792723     -1.643278     -1.374199
H      -1.564651      0.885467     -1.830988
H      -1.584416      1.260524     -0.085496
H      -2.772772      0.139221     -0.789836
H       1.623166     -1.654888      0.030225
H       1.054746      0.252297      2.341413
H       1.566104      0.558830     -0.721721
H       1.719543      1.948771      0.500653
