16
Extracted from Q-Chem output
C       2.628007      0.718961      0.192667
C       1.603339     -0.330384      0.456266
C       0.339204     -0.357763      0.210517
C      -0.696148     -1.547510      0.205717
C      -1.853546     -0.746852     -0.203961
C      -1.857786      0.528808      0.534477
N      -0.601710      0.683057     -0.179929
H       2.340573      1.521627     -0.503532
H       3.548507      0.273531     -0.193106
H       2.907904      1.189129      1.140231
H      -0.798681     -1.945977      1.217805
H      -0.418674     -2.339739     -0.484264
H      -2.435362     -0.872187     -1.106362
H      -1.753826      0.482070      1.621927
H      -2.605254      1.253654      0.222623
H      -0.335524      1.582030     -0.567839
