16
smiles: [C:1](/[C:2](=[C:3](/[O:4][H:14])[H:12])[H:11])([H:8])([H:9])[H:10].[N:5](=[C:6](/[O:7][H:13])[H:16])\[H:15]
C       -1.42350700       1.19991100      -0.21409200
C       -1.03480800       0.25111400       0.87503000
C       -1.29234000      -1.04603900       0.84018600
O       -0.92550200      -1.89038500       1.84744600
N        2.06402100       1.14065400      -0.87645100
C        2.42501800      -0.06283900      -0.92783400
O        1.67243000      -1.05242300      -0.43369400
H       -0.54726200       1.69108700      -0.64531100
H       -2.08125300       1.98865800       0.16027600
H       -1.94724600       0.68533100      -1.02219700
H       -0.51342600       0.64680600       1.74149600
H       -1.81094700      -1.50407100       0.00060700
H        0.87472900      -0.64465400      -0.07155100
H       -1.20135000      -2.78154100       1.63556900
H        2.75440300       1.75212900      -1.29542000
H        3.34792900      -0.45865100      -1.35401000
