17
Extracted from Q-Chem output
C      -2.061482     -0.542774      0.249527
C      -0.836254     -0.012280     -0.454123
O      -0.506678      1.296119      0.101394
C       0.799913      1.533324      0.123832
C       1.503116      0.224851     -0.026958
C       1.093017     -0.765886      1.027360
C       0.440167     -0.801572     -0.316896
H      -2.887977      0.162843      0.161608
H      -1.857326     -0.710887      1.307587
H      -2.368667     -1.489351     -0.197776
H      -1.045769      0.156040     -1.518798
H       1.151949      2.044998     -1.527045
H       1.180843      2.434196     -0.693389
H       2.498954      0.191869     -0.443588
H       0.531676     -0.405716      1.881805
H       1.803997     -1.549333      1.251601
H       0.613010     -1.628803     -0.991115
