15
Extracted from Q-Chem output
C      -2.466456      0.035913     -0.188314
C      -1.147438     -0.659016      0.023008
O      -0.149331      0.372691      0.262735
C       1.093166      0.050005      0.299426
O       1.402491     -1.215825      0.372512
C       2.175078      1.032061      0.113316
O       2.580583      0.387862     -1.027833
H      -2.744941      0.623640      0.686601
H      -2.423604      0.695639     -1.054879
H      -3.242108     -0.710978     -0.362559
H      -0.831765     -1.229091     -0.850742
H      -1.162065     -1.320833      0.888902
H       1.756702      2.041213     -0.020569
H       2.893668      1.057018      0.953604
H       2.281396     -1.179084     -0.098180
