14
smiles: [C:1]([H:7])([H:8])([H:9])[H:10].[C:2]([O:3][H:11])[C:4]([C:5]#[C:6][H:14])([H:12])[H:13]
C       -2.62889200      -0.02771700       0.42307900
C        0.77826500      -1.10793500      -0.40304100
O        0.22262400      -1.36392500      -1.55934900
C        1.13549100       0.35860700      -0.42076300
C        2.24976100       0.69978800       0.45449400
C        3.17452600       0.98334000       1.15806900
H       -2.41096200       0.11283100      -0.63455300
H       -3.63126700      -0.43840400       0.53515200
H       -2.57022600       0.93094800       0.93616800
H       -1.90424400      -0.71629800       0.85493500
H       -0.05822100      -2.28564800      -1.56016900
H        1.29736200       0.73697000      -1.43654100
H        0.22245800       0.84397400      -0.04490100
H        3.99339100       1.23051700       1.79113100
