14
Extracted from Q-Chem output
C      -2.098671     -0.199572     -0.126043
C       0.001629     -0.664697     -0.246309
O       0.215478     -0.549081     -1.573284
C       0.466391      0.580603      0.472076
C       1.911347      0.507733      0.687927
C       3.093931      0.443584      0.859752
H      -1.926376      0.725148     -0.665711
H      -2.723683     -0.876755     -0.707756
H      -2.501664     -0.026277      0.870577
H      -1.085416     -1.077169      0.104254
H       0.202380     -1.425291     -1.964936
H       0.242409      1.495311     -0.092534
H      -0.036338      0.649373      1.438146
H       4.145326      0.386106      1.013293
