15
Extracted from Q-Chem output
C       1.606118     -0.170619     -0.639298
O       0.348493     -0.570509     -0.119285
C      -0.610574      0.559005      0.307023
C      -0.989337     -0.829964     -1.181276
C      -0.564662      0.642782      1.803883
H       2.216503     -1.056625     -0.817496
H       2.091210      0.472386      0.097832
H       1.480953      0.383129     -1.575803
H      -0.196075      1.462548     -0.155311
H      -1.771747     -1.337147     -0.637072
H      -0.398376     -1.531184     -1.790150
H      -1.378840     -0.025219     -1.791359
H      -1.119027      1.528574      2.125147
H       0.458134      0.727153      2.207336
H      -1.031028     -0.224978      2.277622
