14
smiles: [C:1]([C@@:2]1([H:10])[C-:3]([H:12])[O+:4]=[C:5]([H:14])[O:6]1)([H:7])([H:8])[H:9].[H:11][H:13]
C       -1.86457700       0.17675200       0.26832100
C       -0.41871300      -0.16486500       0.58485700
C        0.31815000      -1.13134500      -0.32850100
O        0.90810300      -0.19682500      -1.28960300
C        0.96866400       0.93870800      -0.77228200
O        0.40668900       1.07152900       0.38652100
H       -2.47734900      -0.70702000       0.45650100
H       -2.23500800       0.99209800       0.89379100
H       -1.98024800       0.44995100      -0.78331000
H       -0.30372100      -0.40274700       1.64226600
H        2.63285700      -0.80821900       0.53352500
H       -0.33056400      -1.78027600      -0.91569400
H        3.20103600      -0.33211200       0.60292500
H        1.52792100       1.75015900      -1.21588300
