15
Extracted from Q-Chem output
C       2.051450     -0.108192     -0.557607
C       1.427507     -0.320483      0.744137
O      -0.642128      1.596455     -0.089499
C      -1.639487      0.581905     -0.096753
C      -0.975776     -0.713518     -0.533050
C      -0.012494     -0.575832      0.708420
C      -0.739082      0.757198      1.043665
H       3.140211     -0.093539     -0.538592
H       1.670280     -0.696920     -1.401240
H       1.709091      0.931602     -0.743237
H      -2.665415      0.902015     -0.219024
H      -1.624881     -1.583947     -0.443891
H      -0.536079     -0.684046     -1.529092
H      -0.282954     -1.293701      1.486406
H      -0.853779      1.219580      2.013637
