15
Extracted from Q-Chem output
C       1.954156     -0.003614     -0.562816
C       0.937965      0.174756      0.516875
O      -0.047993      1.410017      0.015287
C      -1.364793      0.806609     -0.023264
C      -1.209299     -0.609797     -0.564480
C      -0.203538     -0.779646      0.620908
C      -0.829922      0.404230      1.277125
H       2.634630      0.847342     -0.608297
H       2.554401     -0.885295     -0.320389
H       1.513138     -0.149053     -1.562840
H      -2.138267      1.527332     -0.259485
H      -2.122974     -1.185076     -0.408387
H      -0.844831     -0.722703     -1.584300
H      -0.014561     -1.715402      1.134602
H      -0.807583      0.838239      2.263370
