15
Extracted from Q-Chem output
C       1.624819     -0.071389      0.005685
C       0.275319     -0.020737      0.656694
C      -0.421142     -1.249841      0.848025
C      -1.294784      0.078568     -0.409452
C      -0.625381      1.318626     -0.639599
H       2.047115      0.918133     -0.158735
H       2.273476     -0.653642      0.669575
H       1.578047     -0.601870     -0.947079
H       0.183187      0.691506      1.466356
H      -0.171109     -2.109556      0.243797
H      -1.092985     -1.380803      1.681709
H      -2.209950      0.092174      0.167283
H      -1.313070     -0.633827     -1.223515
H      -0.863963      2.187798     -0.046702
H       0.008772      1.440023     -1.502841
