14
Extracted from Q-Chem output
C      -1.482686      0.938504     -0.391127
C      -1.210907     -0.487071      0.058890
C       0.240455     -0.840431      0.176233
O       0.411440     -2.138225      0.586839
C       1.236121     -0.031666     -0.074257
C       2.229961      0.771670     -0.327177
H      -1.064031      1.662081      0.310274
H      -2.556577      1.116375     -0.459959
H      -1.044023      1.134116     -1.371015
H      -1.664997     -1.202514     -0.633790
H      -1.672030     -0.677009      1.033189
H       2.660590      1.404459      0.443623
H       1.351471     -2.324652      0.647781
H       2.666413      0.842547     -1.319470
