14
Extracted from Q-Chem output
C      -1.324411      1.022539     -0.502755
C      -0.953267     -0.280727      0.179117
C       0.514380     -0.657374      0.076290
O       0.836809     -1.703598      0.899333
C       1.235478     -0.606846     -1.249924
C       1.716737      0.354399     -0.508087
H      -0.796637      1.872047     -0.061695
H      -2.393918      1.206586     -0.397173
H      -1.080613      0.995331     -1.564875
H      -1.478700     -1.118595     -0.286845
H      -1.239311     -0.273436      1.233716
H       1.024040      0.422042      0.629962
H       1.500537     -2.232408      0.442320
H       2.495092      1.065516     -0.272838
