13
Extracted from Q-Chem output
C      -1.028414     -0.889801     -0.269063
C      -0.265508      0.406239     -0.452692
O      -1.040135      1.537414     -0.094526
C       1.013922      0.483821      0.374440
C       2.169690     -0.592150     -0.437588
N       2.008160     -1.032192      0.651208
H      -1.959091     -0.850479     -0.835494
H      -0.446856     -1.744323     -0.612626
H      -1.266040     -1.053491      0.787132
H      -0.011790      0.545189     -1.504685
H      -1.548965      1.330282      0.693241
H       0.788278      0.412847      1.437744
H       1.575159      1.396430      0.200930
