11
Extracted from Q-Chem output
C       0.772928     -1.268590     -0.309808
C       1.267948      0.049606     -0.354603
C       0.005176      0.819758     -0.197373
C      -0.263996     -0.391662      0.593415
N      -0.672615     -1.435474     -0.329275
N      -0.939835      1.522332     -1.120073
C      -0.388165      2.186995     -0.209438
H       1.388949     -2.117020     -0.029959
H      -0.254913     -0.529730      1.666524
H      -0.893068     -2.288901      0.177869
H      -0.352562      3.209628      0.142727
