13
Extracted from Q-Chem output
C      -2.040394      0.004895     -0.437325
O      -0.665070     -0.324379     -0.497093
C       0.033121     -0.018409      0.920735
C       0.449680      0.951783     -0.100223
N       1.710593      0.762158     -0.595276
C       2.109693     -0.313589      0.040489
N       1.206029     -0.836608      0.873718
H      -2.199592      1.061074     -0.204580
H      -2.519116     -0.594420      0.338706
H      -2.460723     -0.213881     -1.420237
H      -0.108149      1.836516     -0.376189
H       3.101392     -0.736626     -0.076567
H       1.386040     -1.583242      1.519067
