16
Extracted from Q-Chem output
C      -0.859458      0.683110      0.528643
C      -1.858664     -0.032369     -0.396636
N      -0.998988     -1.232621     -0.356211
C       0.111489     -0.467839      0.162703
O       0.817993     -1.098674      1.184453
O       1.002005     -0.142913     -0.855458
C       2.112186      0.632069     -0.451049
H      -1.146079      0.669075      1.578584
H       0.208410     -1.719231      1.589591
H      -0.546542      1.683661      0.239090
H      -2.864231     -0.197863     -0.008682
H      -1.920780      0.431778     -1.383781
H      -0.809928     -1.701450     -1.232620
H       2.651496      0.900183     -1.357800
H       1.793677      1.549626      0.057104
H       2.767636      0.066662      0.213750
