16
Extracted from Q-Chem output
C      -2.150276      0.731412      0.942205
C      -1.742954     -0.487031      0.125902
N      -0.579782     -0.260105     -0.706771
C       0.674127     -0.339162     -0.203468
O       0.961405     -0.712114      0.909352
O       1.577446      0.045688     -1.129400
C       2.934974     -0.023175     -0.709791
H      -2.390336      1.577051      0.294111
H      -3.029276      0.508842      1.550379
H      -1.339701      1.025413      1.610129
H      -1.510561     -1.320180      0.789631
H      -2.558624     -0.806425     -0.525829
H      -0.684215      0.166709     -1.609330
H       3.524335      0.302065     -1.563843
H       3.110591      0.633741      0.142391
H       3.202847     -1.042727     -0.432161
