15
Extracted from Q-Chem output
C      -1.820716     -0.311439     -0.135135
C      -0.714450      0.689455      0.059307
O      -0.273930      0.847840      1.432840
C       1.073742      0.886413      1.076161
C       1.264204     -0.830760      0.332703
C       0.735738      0.393660     -0.321332
O       1.326008      0.877948     -1.472078
H      -1.560915     -1.291387      0.265134
H      -2.730582      0.028164      0.361892
H      -2.036644     -0.414561     -1.201304
H      -1.001538      1.668529     -0.332938
H       1.683031     -0.197881      1.446199
H       2.241992     -1.135413     -0.024702
H       0.588126     -1.606908      0.668971
H       1.241737      0.219186     -2.164598
