15
Extracted from Q-Chem output
C       2.273492     -0.450459      0.041113
C       0.827137     -0.097654     -0.039431
C      -0.186350     -0.845675     -0.614858
C      -1.379184     -0.183957     -0.237475
N      -2.657877     -0.401408      0.027174
C      -1.065995      1.103304      0.350362
N       0.351829      1.012765      0.562049
H       2.534363     -0.767852      1.052886
H       2.504816     -1.263532     -0.644137
H       2.901310      0.405746     -0.214314
H      -0.062940     -1.825366     -1.048876
H      -2.409774      0.714485      0.761040
H      -3.212629     -1.022366     -0.551292
H      -1.331602      1.932281     -0.309979
H       0.938770      1.749572      0.903917
