10
Extracted from Q-Chem output
C      -0.521621     -0.784428      0.100988
C      -0.813176      0.618175      0.124573
N       1.192097      1.181915      0.342219
C       1.741609      0.280816     -0.156393
O       0.383633     -1.197593     -0.710429
H      -0.693448     -1.312985      1.051158
H      -1.647309     -0.632992     -0.348182
H      -0.798660      1.150109     -0.816981
H      -1.397348      1.040414      0.936675
H       2.548836     -0.317200     -0.523029
