12
Extracted from Q-Chem output
C      -1.483738      0.105533     -0.201137
C      -0.354279     -0.716143      0.377033
C       0.678435      0.270249      0.027761
O       0.686731      1.477814      0.558456
N       1.664150      0.013504     -0.809164
H      -2.365415      0.157775      0.430813
H      -0.298089      1.618449      0.629764
H      -1.713758     -0.139465     -1.233941
H      -0.131811     -1.709248     -0.039102
H      -0.414367     -0.796803      1.465263
H       1.797702     -0.919092     -1.156545
H       2.223102      0.762528     -1.180298
