14
smiles: [C:1]([C:2](=[O:3])[H:10])([H:7])([H:8])[H:9].[C:4](=[C:5]([O:6][H:14])[H:13])([H:11])[H:12]
C        1.81014200       0.70681800       0.14761800
C        1.41231900      -0.03554100       1.38745900
O        0.29421100      -0.09119000       1.81924800
C       -1.56762900      -0.51788400      -1.15501000
C       -1.92428900       0.71098500      -0.81046900
O       -1.63319900       1.34512900       0.34875400
H        0.94693800       1.18879700      -0.30704400
H        2.26870400       0.01099600      -0.56000100
H        2.57014500       1.45164200       0.39753900
H        2.23986400      -0.55701700       1.91384600
H       -0.97882000      -1.15352800      -0.50273300
H       -1.86541500      -0.91467500      -2.11424600
H       -2.51223600       1.34955400      -1.45949300
H       -1.11569400       0.76224600       0.91086000
