13
Extracted from Q-Chem output
C       1.472527      0.102942     -0.308562
C       0.606751     -0.336046      1.225702
C      -0.344396      0.666745     -0.373366
C      -1.247851     -0.434278      0.034469
N      -2.263415     -0.826566     -0.591456
O      -0.655907     -0.956918      1.117658
H       2.333446      0.370474      0.301708
H       1.519636      0.865125     -1.104748
H       1.622256     -0.864864     -0.777122
H       0.487436      0.593769      1.802104
H      -0.483850      1.585499      0.187940
H      -0.367649      0.851469     -1.440256
H      -2.712593     -1.614179     -0.132616
