8
Extracted from Q-Chem output
N      -0.383214      0.264893      0.083598
C      -0.505192     -0.922010     -0.610614
O       0.401672     -1.669854     -0.847906
C       0.807694      0.748559      0.604821
O       0.871196      1.785775      1.203315
H      -1.202154      0.833994      0.235194
H      -1.544004     -1.113440     -0.928881
H       1.660195      0.085769      0.408370
