12
Extracted from Q-Chem output
O       1.122878      2.346525     -0.055744
C       0.869385      1.185304     -0.011351
N       1.447863      0.007659     -0.195603
C       0.480733     -1.015047     -0.575285
C      -0.896153     -0.608575     -0.069158
O      -0.933390     -0.491592      1.349475
C      -0.796613      0.697103      0.547581
H       0.552385      0.445826      1.001461
H       0.783557     -1.988891     -0.189449
H       0.456395     -1.071489     -1.667376
H      -1.804965     -0.970253     -0.533413
H      -1.527569      1.487259      0.652263
