14
Extracted from Q-Chem output
C       2.381171     -0.082370      0.832377
C       0.968375      0.424041      1.049718
N       0.156226      0.133209     -0.121922
C      -3.141223     -0.292091     -1.208391
C      -2.074817      0.154465     -0.602047
N      -1.124622      0.638919     -0.008867
H       2.822846      0.373948     -0.054513
H       2.400021     -1.167609      0.701174
H       3.007054      0.154648      1.693368
H       0.540283     -0.015283      1.960848
H       0.963254      1.507261      1.181187
H       0.148049     -0.856239     -0.347247
H      -3.788822     -1.011063     -0.724507
H      -3.393603      0.053965     -2.202080
