14
Extracted from Q-Chem output
C       2.053486      0.075129      0.410259
C       0.586140      0.457378      0.408133
N      -0.151539     -0.350248     -0.554519
C      -1.566831     -0.076904     -0.606678
C      -2.290308     -0.321047      0.662354
N      -2.814279     -0.531950      1.661214
H       2.482343      0.182155     -0.587108
H       2.188263     -0.961780      0.728771
H       2.614996      0.706534      1.099726
H       0.174774      0.368996      1.424934
H       0.474576      1.505543      0.112880
H       0.008135     -1.334287     -0.380413
H      -2.033488     -0.687573     -1.381242
H      -1.726268      0.968054     -0.883854
