13
Extracted from Q-Chem output
C      -0.128208     -0.910841      0.566377
C      -1.166830      0.098027      0.063262
C      -0.328997      1.002958     -0.817740
C       1.051997      0.935833     -0.612767
C       1.215033     -0.165657      0.414857
H      -0.134318     -1.796557     -0.075068
H      -0.322031     -1.249359      1.584406
H      -2.012989     -0.354213     -0.455236
H      -1.575676      0.705870      0.877417
H      -0.781483      1.767474     -1.446505
H       0.421097      0.448219     -1.677995
H       2.062082     -0.821654      0.212230
H       1.470750      0.377275      1.333540
