19
Extracted from Q-Chem output
C      -2.703702      0.002170     -0.170645
C      -1.348832      0.569430      0.230946
C      -0.215554     -0.438134      0.063066
C       1.153979      0.095837      0.483290
C       2.220342     -1.015074      0.508043
C       1.779325      1.187592     -0.344838
O       1.268201      1.154052     -1.553048
H      -2.708004     -0.297789     -1.221509
H      -2.953907     -0.879704      0.424802
H      -3.501145      0.734120     -0.030018
H      -1.383885      0.899113      1.274820
H      -1.137628      1.462171     -0.364349
H      -0.175027     -0.778024     -0.976408
H      -0.438579     -1.326098      0.665342
H       1.094787      0.502508      1.499143
H       2.312586     -1.481892     -0.475434
H       1.933034     -1.785749      1.224338
H       3.197659     -0.624277      0.793213
H       1.713009      1.823418     -2.082569
