19
Extracted from Q-Chem output
C      -2.768182      0.113534     -0.252080
C      -1.407582      0.557499      0.266915
C      -0.351470     -0.537467      0.155540
C       0.994717     -0.101016      0.694793
C       2.210230     -0.904361      0.373697
C       1.841324      0.857753     -0.111221
O       1.476653      0.812287     -1.436858
H      -2.714766     -0.158757     -1.309108
H      -3.134753     -0.758989      0.295023
H      -3.512537      0.905293     -0.149907
H      -1.496266      0.869110      1.313127
H      -1.067572      1.436096     -0.288005
H      -0.249870     -0.842106     -0.888750
H      -0.683612     -1.421887      0.709642
H       0.941796      0.188671      1.742398
H       2.152498     -1.558022     -0.488076
H       2.856994     -1.218252      1.185979
H       2.928190      0.194905      0.050111
H       2.045199      1.427006     -1.902068
