13
Extracted from Q-Chem output
C      -0.480292      1.422297     -1.013009
C      -0.348845      0.178934     -0.189075
C      -1.440312     -0.242670      0.840895
N      -1.375819     -0.912818     -0.350493
C       0.826363     -0.321665      0.260836
C       1.938763     -0.763201      0.761729
H       0.022966      1.306888     -1.973920
H      -0.044809      2.271045     -0.486021
H      -1.537512      1.616751     -1.180196
H      -1.199532     -0.802366      1.753288
H       2.217232     -0.568849      1.794526
H      -0.996073     -1.865715     -0.344951
H       2.638684     -1.342157      0.164766
