13
Extracted from Q-Chem output
C      -0.256765      1.282149     -0.975795
C      -0.296607     -0.125983     -0.453787
C      -0.669833     -0.481075      0.962653
N      -1.665208     -0.579972     -0.069638
C       0.943675     -0.773945     -0.252740
C       1.788038     -0.572007      0.677839
H      -0.191435      1.279021     -2.065415
H       0.616410      1.802024     -0.579764
H      -1.167584      1.801738     -0.683991
H      -0.448002     -1.458707      1.375476
H       0.597215      0.040364      1.518521
H      -1.871683     -1.554099     -0.274507
H       2.842589     -0.683035      0.859527
