12
Extracted from Q-Chem output
O      -1.621716      0.455069      1.826007
C      -0.753003      0.383868      1.065670
C      -0.447774      0.985123     -0.299774
C       0.623139     -0.047167     -0.714135
C       0.070650     -1.382593     -0.524435
C       1.499973      0.223260      0.534624
N       0.991875      0.188373      1.612878
H      -1.347560      0.944205     -0.915472
H      -0.077727      2.015967     -0.223732
H       1.030659      0.148444     -1.706898
H       0.298245     -1.944775      0.365996
H      -0.173620     -1.971446     -1.402180
