11
Extracted from Q-Chem output
C      -1.887804      0.234941     -0.268342
C      -0.681004     -0.644652     -0.158959
O      -0.619077     -1.805012     -0.395755
O       0.406360      0.116688      0.251854
C       1.537710     -0.527000      0.640633
N       2.546888      0.265466      0.919293
H      -2.101687      0.685632      0.701395
H      -1.688698      1.045072     -0.970739
H      -2.735873     -0.353697     -0.605734
H       2.696931     -0.761461      0.187754
H       2.392525      1.262200      0.696637
