17
Extracted from Q-Chem output
C       2.355712     -0.045668     -0.073515
C       1.086407      0.685104      0.346111
C       0.018206     -0.302512      0.774941
O      -1.151413      0.561838      1.443462
C      -2.094466      0.380087      0.589912
C      -1.754036     -0.072833     -0.763492
C      -0.732316     -1.053412     -0.238719
H       2.142336     -0.735664     -0.891149
H       2.769672     -0.624320      0.756173
H       3.120764      0.659920     -0.401210
H       0.714637      1.288341     -0.485955
H       1.300667      1.370585      1.170203
H       0.349771     -0.899193      1.624567
H      -3.099727      0.591556      0.956427
H      -2.610574     -0.515922     -1.268614
H      -1.361673      0.737424     -1.394384
H      -1.100700     -2.030473      0.057522
