14
Extracted from Q-Chem output
O       1.402253      1.045807      1.227671
C       0.484012      0.189401      0.166767
C       0.594724      0.871335     -1.071398
C      -0.751052      0.772475     -0.373098
C      -1.330305     -0.666707     -0.355693
C      -0.075980     -1.172503      0.446756
H       2.253294      0.590508      1.307051
H       1.481596      1.634974      0.371221
H       0.793995      0.329826     -1.994482
H      -1.309559      1.632825     -0.025967
H      -2.263440     -0.785889      0.195195
H      -1.425357     -1.116234     -1.345401
H      -0.338583     -1.335456      1.492430
H       0.481904     -2.029007      0.063446
