10
Extracted from Q-Chem output
C      -1.582270     -0.028491      0.136872
N      -0.139347     -0.065845      0.063113
N       0.645037      0.642189      0.845975
C       1.838863      0.282086      0.413770
N       1.772038     -0.607821     -0.590406
N       0.505567     -0.815080     -0.797407
H      -1.907942     -0.370938      1.117349
H      -1.962974     -0.688715     -0.637355
H      -1.928576      0.989540     -0.030519
H       2.759606      0.663075      0.822459
