12
Extracted from Q-Chem output
C      -0.378225     -2.006568     -0.684001
O      -0.128452     -0.669763     -1.119637
C      -0.025852      0.235949     -0.159737
N      -0.132765      0.004010      1.101869
O       0.063891      1.233497      1.734740
C       0.198118      2.259742      0.869410
C       0.209777      1.643620     -0.397884
H       0.421701     -2.345588     -0.024027
H      -1.328587     -2.059690     -0.150959
H      -0.411842     -2.610420     -1.586719
H       1.289086      2.157984      0.203763
H       0.231169      2.154101     -1.349007
