11
Extracted from Q-Chem output
C      -1.626825     -0.265145      0.103627
C      -0.173291      0.074239      0.017469
C       0.500536      1.120153      0.731074
O       1.824762      0.815915      0.464135
C       1.872962     -0.339505     -0.231013
N       0.748769     -0.842390     -0.549560
H      -1.754712     -1.092194      0.802215
H      -2.015184     -0.577515     -0.865044
H      -2.192423      0.588937      0.473329
H      -0.088929      1.185342     -0.532963
H       2.854006     -0.728206     -0.467087
