12
Extracted from Q-Chem output
C      -1.197264     -0.913347     -0.473941
N      -0.290546      0.791279      1.080084
C      -0.002794     -0.426819      0.340310
C       1.200238     -0.042630     -0.463910
N       1.559390      1.162572     -0.239704
C       0.605411      1.617200      0.714793
H      -0.950469     -1.829479     -1.012719
H      -2.037294     -1.114272      0.189411
H      -1.501431     -0.155285     -1.196532
H       0.279820     -1.203665      1.062955
H       1.731343     -0.685621     -1.158861
H       0.674114      2.631109      1.090539
