16
Extracted from Q-Chem output
C       1.004464      1.234082      0.182356
C       0.322163     -0.040829     -0.262281
C      -0.709521     -0.620168      1.733549
C      -1.322200     -0.206670     -0.162664
C      -0.576899      0.074097     -1.443621
C       1.155860     -1.218271     -0.269378
N       1.847859     -2.132490     -0.338475
H       1.668926      1.577166     -0.613150
H       1.590897      1.088831      1.087370
H       0.261376      2.009391      0.371710
H       0.093498      0.057627      2.047047
H      -0.235775     -1.604640      1.612615
H      -1.802284     -1.171355     -0.136556
H      -1.908710      0.618006      0.205500
H      -0.535298     -0.724531     -2.171479
H      -0.677389      1.069436     -1.857056
