17
smiles: [C:1](=[C:3]([C:2]([H:10])([H:11])[H:15])[H:12])([H:8])[H:9].[C:4]1([H:13])=[C:5]([H:14])[C:6]([H:16])([H:17])[O:7]1
C       -1.63358600      -0.92437700       0.40996300
C       -1.72332500       1.41953600      -0.46480000
C       -2.17157800      -0.00431000      -0.37540000
C        2.10429100      -0.18557300       1.49317700
C        2.33425300      -1.12492700       0.57952000
C        1.80736300      -0.14019900      -0.42916100
O        1.60447200       0.79981500       0.67291400
H       -0.80001400      -0.69322000       1.06549700
H       -2.00649000      -1.94120100       0.42909400
H       -2.53664200       2.10165900      -0.20377500
H       -0.88410200       1.61635000       0.20366700
H       -3.00631800      -0.28443600      -1.01407300
H        2.19902900      -0.02793700       2.55911600
H        2.72079900      -2.12788500       0.55807800
H       -1.41719700       1.66826500      -1.48430400
H        2.51798500       0.26746000      -1.14893700
H        0.85542400      -0.37337700      -0.90725300
