17
Extracted from Q-Chem output
C      -1.719034     -0.240426      1.430681
C      -1.144173      0.635854     -0.581874
C      -1.013715     -0.601875      0.279089
C       0.654059     -0.859753      0.331025
C       1.238289     -0.291375     -0.856732
C       1.956892      0.668663      0.052112
O       1.270424      0.101872      1.189718
H      -1.425008      0.652511      1.967623
H      -2.501582     -0.849758      1.868611
H      -2.053370      0.704278     -1.176187
H      -0.951798      1.570555     -0.054729
H      -1.410505     -1.489201     -0.217324
H       0.782581     -1.898499      0.632089
H       1.602311     -0.788720     -1.744783
H      -0.088176      0.448890     -1.230323
H       3.039196      0.513165      0.120298
H       1.751944      1.740304     -0.048541
