15
smiles: [C:1](=[C:2]([C:3]([H:11])([H:12])[H:13])[H:10])([H:7])[H:8].[C:4]1([H:14])([H:15])[C:5]([H:9])=[N:6]1
C       -1.46915200       1.29642800      -0.18541300
C       -1.33723500       0.04008400       0.21060500
C       -1.33103600      -1.15047000      -0.69436900
C        2.24184100      -0.13716900       1.02688400
C        1.99085600       0.41815100      -0.28323600
N        2.19941100      -0.80641200      -0.34065900
H       -1.46467500       2.11779100       0.52069100
H       -1.58721800       1.54964400      -1.23423800
H        1.76720600       1.24065600      -0.94774800
H       -1.22161400      -0.16454600       1.27267000
H       -1.45622100      -0.85810100      -1.73792200
H       -2.13466900      -1.84406100      -0.43388800
H       -0.39280000      -1.70405500      -0.60396400
H        1.42003100      -0.35927000       1.69993000
H        3.21943500      -0.04309700       1.48865300
