11
Extracted from Q-Chem output
O      -2.298588      0.126469     -0.399607
C      -1.098270      0.898326     -0.342895
C      -0.014934      0.281860      0.450789
C       1.961050     -0.970887      0.227035
O       0.942253     -0.301842     -0.201563
H      -2.070394     -0.749738     -0.717308
H      -0.720303      1.105527     -1.351425
H      -1.404837      1.847094      0.101159
H      -0.020830      0.189662      1.531423
H       2.101843     -1.107360      1.290834
H       2.632521     -1.323510     -0.535755
