11
Extracted from Q-Chem output
O      -1.940416     -0.261337     -0.121896
C      -1.082105      0.877035     -0.200414
C       0.306597      0.612145      0.228274
C       1.584343     -1.066314      0.198344
O       1.055206     -0.133447     -0.598727
H      -1.640234     -0.905829     -0.766170
H      -1.064758      1.263598     -1.229703
H      -1.528822      1.634704      0.442076
H       0.749796      0.888230      1.172700
H       0.933809     -1.582681      0.882997
H       2.623412     -1.315273      0.036125
