10
Extracted from Q-Chem output
N      -0.010357      0.844769     -0.570401
C      -0.271156     -0.186999      0.123421
O       2.020107     -1.447920     -0.780554
C       1.616582     -0.502021     -0.198640
O       1.228751      0.830891     -1.054421
C      -1.614817     -0.317885      0.734109
O      -2.623439     -0.027037      0.143184
H      -0.576731      1.665056     -0.777350
H       1.991635     -0.068168      0.737416
H      -1.638007     -0.742004      1.752270
