14
Extracted from Q-Chem output
C       1.925267      0.134933     -0.047794
C       0.431701      0.049652     -0.012178
C      -0.378225     -0.550651     -1.106954
C      -1.659835      0.511403      0.686879
C      -1.513145     -0.714756     -0.166111
N      -0.173263     -1.319554      0.100437
C      -0.430220      0.995014      0.783643
H       2.247870      1.072209     -0.504378
H       2.343472     -0.691899     -0.621995
H       2.335318      0.088374      0.962296
H      -0.162551     -0.896218     -2.110153
H      -2.580972      0.881097      1.110287
H      -2.312315     -1.417439     -0.359273
H      -0.074140      1.868794      1.308678
