17
Extracted from Q-Chem output
C       2.125469      0.253764     -1.209799
N       1.696738      0.115628      0.272089
C       0.502071     -0.694781      0.562475
O       0.665347     -1.829856      0.936429
N      -0.681735     -0.080049      0.370137
C      -1.886223     -0.878608      0.500858
C      -0.871748      1.231123     -0.217878
H       2.459745     -0.363770      0.741165
H       2.292079     -0.787628     -1.510536
H       1.219552      0.588475     -1.729304
H       1.640276      1.045354      0.674362
H      -2.646527     -0.304167      1.032490
H      -1.658557     -1.783442      1.056169
H      -2.275247     -1.153895     -0.483875
H       0.047922      1.807070     -0.260245
H      -1.245980      1.141613     -1.241475
H      -1.600814      1.787311      0.374755
