12
Extracted from Q-Chem output
C      -1.985528     -0.386957      0.582788
C      -0.644279      0.195196      0.358097
C      -0.085086      1.222852     -0.231953
C       1.318029      0.999001     -0.163973
C       1.749845     -0.341383      0.305111
O       1.891907     -0.463226     -0.944921
H      -2.084053     -1.333328      0.045000
H      -2.161001     -0.586146      1.641880
H      -2.743159      0.304193      0.214970
H       2.104841      1.710572     -0.383299
H       0.278057     -0.566956      0.781747
H       2.375736     -0.860833      1.038748
