14
Extracted from Q-Chem output
C       1.973050      0.658757      0.097136
N       1.271919     -0.226978     -0.482899
C      -0.037874     -0.548552     -0.134000
N      -0.475097     -1.881131     -0.403974
C      -0.988349      0.337072      0.259411
O      -0.803914      1.665937      0.398654
N      -2.277416     -0.024058      0.540520
H       1.656073      1.212811      0.987604
H       0.046348      1.906011      0.015773
H       2.979491      0.846651     -0.268586
H      -0.013189     -2.547130      0.201472
H      -0.245778     -2.138024     -1.356787
H      -2.491918     -0.963322      0.242784
H      -2.968699      0.677560      0.333558
