14
Extracted from Q-Chem output
O      -1.080220      1.721863     -0.398815
C      -0.782104      0.573969      0.196658
C      -1.209225     -0.652868     -0.457230
C       0.166587     -1.291041     -0.670394
C       1.270524     -0.270803     -0.236923
C       0.568931      0.468059      0.885099
H      -0.502076      2.425469     -0.086258
H       0.477361     -0.169745      1.770849
H      -1.818744     -0.408649     -1.327451
H      -1.775804     -1.310258      0.204282
H       0.258450     -2.177067     -0.029193
H       1.549784      0.406812     -1.052131
H       2.172714     -0.786220      0.088719
H       0.955935      1.445714      1.189718
