16
smiles: [C:1]([O:2][H:13])([H:8])([H:9])[H:10].[C:3](=[C:4]([C:5]([H:14])([H:15])[H:16])[C:6]#[N:7])([H:11])[H:12]
C        2.32204800       0.81072200      -0.53114100
O        1.84597900       0.92278300       0.79282900
C       -0.45906200      -1.49004600       0.58948400
C       -1.41837100      -0.80997600      -0.02885800
C       -1.48897800       0.68691400      -0.12223700
C       -2.48769700      -1.53177900      -0.67119500
N       -3.35292600      -2.07847500      -1.19282900
H        2.37996100       1.78259600      -1.03450500
H        1.61241200       0.18820100      -1.07503000
H        3.30543900       0.32919100      -0.57839600
H       -0.46217100      -2.57152200       0.62280700
H        0.35669800      -0.97183100       1.07853200
H        2.45717100       1.46236200       1.29493000
H       -2.41077500       1.05822300       0.32920800
H       -0.63988800       1.14050300       0.38704500
H       -1.48566700       1.00732300      -1.16577000
