16
Extracted from Q-Chem output
C      -0.659341     -0.336119     -0.750413
C      -0.893730      1.066804     -0.216185
C      -0.305595      0.930151      1.181743
O       0.795995      0.045417      1.047494
C       0.708933     -0.721195     -0.140641
O       0.806128     -2.085537      0.130432
N       1.868482     -0.428934     -0.935764
H      -1.429858     -1.014245     -0.371130
H      -0.647551     -0.418314     -1.836044
H       0.096605     -2.324020      0.730283
H      -0.333708      1.805608     -0.795365
H      -1.941062      1.368037     -0.209973
H       0.060679      1.868728      1.599671
H      -1.043160      0.509801      1.877938
H       1.905101     -1.025539     -1.750304
H       1.880504      0.540009     -1.219392
