16
Extracted from Q-Chem output
C      -1.005095     -0.362148     -0.845162
C      -1.223497      0.912193     -0.046691
C      -0.191132      0.953277      1.082021
O       1.076116      0.613602      0.494912
C       1.157142     -0.598025     -0.012453
O       0.704291     -1.684951      0.594288
N       2.163850     -0.745329     -0.872324
H      -1.873017     -1.031122     -0.788240
H      -0.816125     -0.176508     -1.902585
H      -0.232406     -1.462845      0.078672
H      -1.090580      1.808614     -0.659165
H      -2.217520      0.985508      0.404586
H      -0.042128      1.937517      1.522489
H      -0.417485      0.231160      1.868732
H       2.319984     -1.660068     -1.251723
H       2.556027      0.059778     -1.325008
