6
Extracted from Q-Chem output
O      -0.140815     -1.198423      0.058428
C       0.887396      0.310436      0.221860
N       0.199492      1.240345      0.466711
N      -1.566973      0.409020      0.506340
N      -1.243445     -0.676049      0.273191
H       1.863393     -0.097456      0.041846
