12
Extracted from Q-Chem output
C      -1.882483      0.064557      0.201438
C      -0.565332      0.148818      0.057329
C       0.414034     -0.933848     -0.325639
N       1.616020     -0.154708     -0.634229
N       1.502600      1.113230     -0.122276
C       0.288830      1.326389      0.219779
H      -2.468131      0.931566      0.480799
H       0.088417     -1.517247     -1.187485
H      -2.416291     -0.865263      0.048334
H       0.581050     -1.618105      0.514920
H       2.508121     -0.561952     -0.406821
H      -0.023503      2.298584      0.574685
