19
smiles: [C:1]([C:2]([C:6](=[O:5])[C:7]([H:17])([H:18])[H:19])([H:11])[H:16])([H:8])([H:9])[H:10].[C:3](=[C:4]([H:14])[H:15])([H:12])[H:13]
C       -0.45611100      -1.44920500      -0.19651800
C        0.10216300      -0.34530300      -1.09718100
C       -2.58284300       1.25548500       1.44243600
C       -1.45804900       1.71616000       1.96195000
O        1.57647500       0.93113600       0.25895000
C        1.46598800       0.09489000      -0.60290600
C        2.66742600      -0.58059100      -1.21656100
H       -1.44563500      -1.75830800      -0.53477600
H        0.18563800      -2.33314600      -0.19868400
H       -0.54167900      -1.09474200       0.83133100
H       -0.55610900       0.52420800      -1.07154400
H       -3.52846000       1.34063400       1.96573000
H       -2.60575600       0.77196700       0.47245400
H       -1.43584700       2.19954000       2.93202500
H       -0.51241800       1.63109000       1.43883900
H        0.16936000      -0.70041300      -2.12865800
H        2.53273000      -1.66447600      -1.23913300
H        2.77081300      -0.25046500      -2.25375100
H        3.56855800      -0.32449200      -0.66400400
