16
Extracted from Q-Chem output
C       1.857599     -1.043619      0.830260
C       0.597951     -0.352878      0.431085
C       0.603817      0.761273     -0.596236
C      -0.865119      1.076341     -0.790025
C      -1.637663      0.215104      0.132692
N      -1.646352     -0.043335     -1.321383
C      -0.636909     -0.617900      0.851357
H       1.676401     -1.789091      1.604663
H       2.595645     -0.327683      1.203088
H       2.309022     -1.547234     -0.029063
H       1.157136      1.631806     -0.228535
H       1.076932      0.442834     -1.529793
H      -1.178351      2.085865     -1.025620
H      -2.554197      0.542402      0.607783
H      -2.505737      0.315903     -1.723063
H      -0.897598     -1.378094      1.577123
