14
Extracted from Q-Chem output
N      -1.209068      2.819812     -1.705724
C      -0.803845      2.093346     -0.914869
C      -0.289213      1.151993      0.065868
C       0.981805      0.339161     -0.314421
C       0.706482     -2.067665      0.648861
C       0.286476     -0.889486      0.232728
C      -1.055930     -0.189466      0.250295
H      -0.161021      1.667420      1.017525
H       1.120721      0.290840     -1.395969
H       1.915323      0.648221      0.153492
H       1.751920     -2.346356      0.587359
H       0.018950     -2.794601      1.065104
H      -1.664294     -0.430992     -0.623114
H      -1.665792     -0.280472      1.147938
