12
Extracted from Q-Chem output
N       1.776641     -0.049648     -0.474748
C       0.610175     -0.215271      0.223017
C      -0.440432      0.805907     -0.078918
N      -1.716331      0.679899      0.688810
C      -1.724528      0.299483     -0.605935
O      -2.362832     -0.185333     -1.481281
N       0.341605     -1.092749      1.101841
H       2.443481     -0.801254     -0.467348
H       1.751903      0.495012     -1.318768
H      -0.100551      1.824301     -0.238013
H      -1.702120     -0.036233      1.413776
H       1.094785     -1.757710      1.246520
