12
Extracted from Q-Chem output
N       1.881000     -0.022385     -0.170621
C       0.565505     -0.059390      0.144758
C      -0.318093      1.004855     -0.173924
N      -1.630959      0.837177      0.452153
C      -1.608892     -0.261805     -0.303369
O      -2.135667     -0.947441     -1.091694
N      -0.075338     -1.078461      0.678257
H       2.396981     -0.880545     -0.232112
H       2.233275      0.758489     -0.693028
H      -0.094611      1.923248     -0.690433
H      -1.632323      0.686261      1.458674
H       0.385479     -1.976818      0.632448
