14
Extracted from Q-Chem output
C      -1.777149      0.664919      0.085130
C      -0.487806      0.534721     -0.741466
C       0.958213      0.673306     -0.268503
C       1.311583     -0.787586      0.141387
C      -0.033712     -1.267594      0.684246
C      -0.989648     -0.567786      0.092248
H      -1.797314      1.232585      1.009684
H      -2.686284      0.736185     -0.501913
H      -0.665820      0.485648     -1.812099
H       1.023707      1.323096      0.609511
H       1.618851      1.082665     -1.035000
H       2.098780     -0.843092      0.897024
H      -0.139458     -1.939339      1.527712
H       1.651834     -1.374773     -0.719411
