17
smiles: [C:1]([C:2]([H:9])([H:10])[H:11])([H:6])([H:7])[H:8].[C:3]([C:4]([H:12])([H:13])[H:14])[C:5]([H:15])([H:16])[H:17]
C        2.43740300      -0.04754000       0.39787100
C        1.33120700      -1.08189400       0.55687700
C       -1.41709900      -0.05761100      -1.00402000
C       -0.92470600       1.32549700      -0.94436900
C       -2.22837700      -0.43176400       0.16228600
H        2.03029800       0.93734700       0.16077100
H        3.02372500       0.05002500       1.31365600
H        3.12520200      -0.32082200      -0.40471100
H        0.64244400      -0.80770100       1.35832800
H        1.73828200      -2.06633800       0.79576500
H        0.74590700      -1.18060300      -0.35940900
H       -1.69906400       1.85318900      -1.52821900
H       -0.86254800       1.80535800       0.04313900
H       -0.00833100       1.47171100      -1.51814400
H       -2.09102600       0.14420400       1.08892100
H       -3.24647900      -0.22771100      -0.21356700
H       -2.22248800      -1.50564600       0.35491400
