15
smiles: [C+:2]([C:3]([H:11])([H:12])[H:13])=[C:4]([O-:5])[N:6]([H:14])[H:15].[C:1]([H:7])([H:8])([H:9])[H:10]
C       -0.89200500      -2.37481300      -0.00665000
C       -0.11132600       1.14752700      -0.43987500
C       -1.03502700       1.69952900       0.55113000
C        1.25480300       1.06073900      -0.02385700
O        1.78797500       2.15449100      -0.19791700
N        1.87742100      -0.05658900       0.41026600
H       -0.74353900      -2.04140100       1.01938900
H       -0.09542500      -3.06406500      -0.28245700
H       -1.85321500      -2.88011900      -0.08769300
H       -0.87604000      -1.51401100      -0.67334300
H       -1.91441600       2.17378800       0.11729100
H       -1.39576900       0.77234000       1.03646000
H       -0.58324500       2.31938300       1.33218800
H        1.43450300      -0.94883700       0.28308500
H        2.88270400      -0.03390600       0.45363600
