14
Extracted from Q-Chem output
C       1.321202     -0.417740     -0.747016
C       0.190588     -0.092957      0.191102
C      -0.487074     -1.098257      1.032173
C      -1.267664     -0.003164     -0.246578
O      -1.427613      1.286362      0.285148
C      -0.039376      1.338110      0.696448
H       1.149017     -1.369962     -1.251787
H       2.256971     -0.502817     -0.190752
H       1.454438      0.357699     -1.504038
H      -0.428276     -2.041774      0.457000
H      -1.835115     -0.757318      0.457215
H      -1.556475     -0.193935     -1.277459
H       0.061306      1.485731      1.771744
H       0.490615      2.116027      0.140616
