11
smiles: [C:4]1([H:8])([H:9])[C:5]([H:10])([H:11])[O:6]1.[O:1]=[C:2]=[N:3][H:7]
O        3.90948100      -0.27757900       1.34168300
C        2.77467600      -0.21706700       1.10983200
N        1.57803600      -0.10112900       0.99637000
C       -1.59965800      -0.43960400      -0.16764600
C       -1.13330600       0.77053500      -0.83493300
O       -0.42607100      -0.44916000      -0.95852300
H        1.04172400      -0.35153000       0.18659700
H       -2.44225000      -0.98681700      -0.58025400
H       -1.44099300      -0.55749100       0.90043400
H       -0.63196100       1.54193500      -0.25762600
H       -1.63231300       1.11128900      -1.73750100
