11
Extracted from Q-Chem output
O       2.522286      0.381823     -0.170084
C       1.453175     -0.112386      0.042336
N       0.860979     -0.959057      0.819730
C      -1.176942     -0.438063     -0.163261
C      -0.792310      0.947285     -0.342234
O       0.351522      0.354246     -0.948171
H       1.474023     -1.321546      1.538619
H      -1.456417     -0.978343     -1.057556
H      -1.324721     -0.916194      0.785874
H      -0.569451      1.503577      0.565947
H      -1.342143      1.538659     -1.071201
