17
smiles: [C:1]([O:2][H:17])([H:8])([H:9])[H:10].[C@:3]12([H:11])[C:4]([H:12])([H:13])[O:5][C@@:6]1([H:14])[C:7]2([H:15])[H:16]
C        2.38101200       1.50855800      -0.16383900
O        1.45751500       1.43175000       0.90100200
C       -0.60874800      -0.56339000      -0.58400600
C       -0.29863100      -1.65646900       0.42120800
O       -1.70227200      -1.95949700       0.58715000
C       -2.03304200      -1.00546600      -0.41350400
C       -1.63754900       0.36337600       0.01013000
H        3.32578600       1.85095400       0.25693300
H        2.54857900       0.53464500      -0.63765800
H        2.06968900       2.22580800      -0.93179900
H       -0.04487900      -0.33537100      -1.47586000
H        0.17811800      -1.36076200       1.36007800
H        0.22275600      -2.51254600      -0.01268700
H       -2.81560200      -1.24968500      -1.11933100
H       -1.95456700       1.16607700      -0.64422700
H       -1.61463900       0.60256400       1.06795000
H        0.61518000       1.13414700       0.55641500
