17
Extracted from Q-Chem output
C       2.293075      0.327968     -0.530535
C       0.824283      0.298154     -0.270334
C      -1.562101     -0.628024      1.213751
C      -1.430188     -0.504989     -0.273594
C      -0.067101     -0.753738     -0.896144
C      -1.309643      0.723223      0.597346
C       0.122470      1.116988      0.510042
H       2.498325      0.384579     -1.603563
H       2.766912      1.181739     -0.045487
H       2.774110     -0.582823     -0.162643
H      -0.752199     -1.080908      1.773922
H      -2.553354     -0.827722      1.601370
H      -2.316430     -0.669698     -0.871687
H      -0.096333     -0.634839     -1.984862
H       0.303964     -1.766017     -0.702625
H      -2.085740      1.476349      0.645637
H       0.539902      1.953880      1.057761
