17
Extracted from Q-Chem output
C       2.177320      0.092604     -0.228222
C       0.693967      0.197361     -0.183287
C      -0.981117     -0.918739      1.168570
C      -1.432269     -0.397731     -0.195756
C      -0.219978     -0.636444     -1.065132
C      -1.368730      1.044486      0.164608
C      -0.025665      1.334557      0.225741
H       2.529746      0.335975     -1.238036
H       2.657398      0.773984      0.474301
H       2.506187     -0.924132     -0.011154
H      -0.720765     -0.219235      1.945187
H      -1.432584     -1.845818      1.536280
H      -2.398105     -0.779323     -0.529162
H      -0.272460     -0.228207     -2.087906
H       0.048820     -1.690832     -1.108011
H      -2.201233      1.646487      0.497487
H       0.420156      2.216390      0.667641
