11
Extracted from Q-Chem output
O       2.306451     -1.237814     -0.036882
C       1.202033     -0.502414     -0.010604
N       0.921036     -1.856351     -0.076627
C      -1.670018      0.342251     -0.361773
C      -0.661918      1.089046      0.076687
C       0.760152      0.736891      0.039966
H       0.778067     -2.203600      0.874665
H      -1.511973     -0.620024     -0.836239
H      -2.693024      0.682722     -0.267609
H      -0.882395      2.061109      0.507720
H       1.504166      1.522088      0.080716
