11
Extracted from Q-Chem output
O       1.206640      1.523892     -2.047209
C       1.321396      1.482107     -0.859087
C      -0.837478     -1.070209      1.579719
N      -0.912013     -0.952138      0.255977
C      -0.279672     -0.180570     -0.598731
O       0.635861      0.674527     -0.039092
H       2.002843      2.098082     -0.260911
H      -1.477585     -1.793876      2.051008
H      -0.150938     -0.448281      2.125390
H      -1.576559     -1.564945     -0.195545
H      -0.450022     -0.200810     -1.657747
