14
Extracted from Q-Chem output
C      -1.596429     -0.537162     -0.962607
C      -1.399141      0.513262     -0.172279
C      -0.141318      1.274759     -0.084015
C       1.078387      0.810899      0.171318
C       1.505261     -0.587241      0.535190
O       0.561799     -1.376321      1.214409
H      -2.555566     -1.038443     -1.005756
H      -0.810707     -0.911294     -1.610934
H      -2.233177      0.891462      0.414488
H      -0.272055     -1.345257      0.736603
H      -0.247242      2.344109     -0.249121
H       1.896498      1.525273      0.133242
H       2.365017     -0.514486      1.204744
H       1.870397     -1.091734     -0.373205
