12
Extracted from Q-Chem output
O      -0.839859      0.271269      1.281781
C      -0.365083      0.952067      0.144151
C      -1.113431      0.047798     -0.803988
C      -0.439136     -0.779890      0.298570
C       1.046872     -0.335927     -0.007533
C       0.952881      1.338802      0.018173
H      -2.191998      0.101886     -0.702594
H      -0.748234     -0.019469     -1.823689
H      -0.724144     -1.781349      0.614916
H       1.399256     -0.721295     -0.961051
H       1.721884     -0.564125      0.812490
H       1.325415      1.629979      1.001712
