12
Extracted from Q-Chem output
O      -0.972124      0.459818      1.348272
C      -0.457510      0.940719      0.228275
C      -1.120377      0.032497     -0.806766
C      -0.358607     -0.780815      0.185409
C       1.111027     -0.342268     -0.050891
C       0.900012      1.234981      0.052333
H      -2.198028     -0.031451     -0.724709
H      -0.718797      0.089954     -1.811760
H      -0.728738     -1.663228      0.701455
H       1.481846     -0.745413     -0.997758
H       1.760961     -0.655511      0.763406
H       1.324758      1.600465      0.985674
