15
Extracted from Q-Chem output
C      -0.613635     -1.660910      0.663019
C      -0.312964     -0.538706     -0.295978
O      -0.895392     -0.800482     -1.537032
C      -0.881899      1.529520      0.652721
O      -0.264816      2.381749     -0.156726
C       1.063714     -0.122065     -0.389305
C       2.162815      0.353347     -0.502805
H      -1.693375     -1.771903      0.768850
H      -0.179435     -1.454537      1.640534
H      -0.202663     -2.598469      0.284152
H      -0.666021     -0.090991     -2.143857
H      -0.251482      1.257451      1.516118
H      -1.131781      0.423739      0.116498
H       0.697351      2.406245     -0.011091
H       3.169715      0.681235     -0.616718
