14
Extracted from Q-Chem output
O       1.494306     -1.177886     -1.422234
C       2.106525     -0.208439     -0.824156
C      -1.439865      0.452857     -0.583116
C      -0.956504      0.020998      0.787936
O       0.274180     -0.689874      0.751837
C       1.426298      0.093084      0.489240
H       0.727133     -1.477706     -0.876215
H      -0.726780      1.120292     -1.071993
H      -1.598791     -0.410863     -1.231430
H      -2.387840      0.986596     -0.494542
H      -1.670997     -0.662040      1.249573
H      -0.850246      0.887179      1.451407
H       1.211855      1.167185      0.517656
H       2.176199     -0.099395      1.266048
