13
Extracted from Q-Chem output
C      -1.547062     -0.056064     -0.382617
C      -0.320028     -0.095427      0.488329
N       0.851562     -0.861116     -0.124080
C       1.636497      0.398841     -0.081586
C       0.609398      1.154761      0.470962
O       0.361923      2.292987      0.826653
H      -2.075309     -1.011686     -0.423055
H      -1.290266      0.262529     -1.396064
H      -2.225825      0.692708      0.027504
H      -0.524225     -0.493778      1.483983
H       1.180705     -1.630400      0.456891
H       0.633576     -1.231897     -1.048063
H       2.650634      0.479437     -0.435590
