17
Extracted from Q-Chem output
C      -1.470584     -0.306992      0.402162
C      -0.937941     -1.317372     -0.605084
O       0.276497     -0.775136     -1.111063
C       2.200181     -0.254961      0.865127
C       1.516785      0.737003      0.319717
C       0.430385      0.576183     -0.708873
C      -0.943318      1.003402     -0.173950
H      -1.039369     -0.487214      1.388915
H      -2.556393     -0.334624      0.491606
H      -0.729410     -2.294715     -0.163998
H      -1.640181     -1.459414     -1.435240
H       2.016288     -1.281671      0.571865
H       2.967515     -0.069029      1.606232
H       1.724553      1.765532      0.607511
H       0.704099      1.159812     -1.594933
H      -1.575722      1.340233     -0.998338
H      -0.877535      1.807768      0.558510
