14
smiles: [C:2](=[C:3]=[C:4]1[C@@:5]2([H:11])[C@:6]1([H:13])[N:7]2[H:14])([H:9])[H:10].[O:1]([H:8])[H:12]
O        0.16900700      -2.47653600      -0.91996100
C        2.44268700       0.42471400       0.30761600
C        1.14832400       0.49127700       0.43065400
C       -0.13488400       0.54779900       0.53297600
C       -1.39018900       1.24611900       0.25505100
C       -1.40649100      -0.12489300       0.79979600
N       -2.10830000       0.94991500       1.48563200
H        0.46972500      -1.56711600      -0.90208700
H        3.10159000       0.73496100       1.11109300
H        2.90228900       0.05443500      -0.60242800
H       -1.83052500       1.64832100      -0.64117700
H        0.55761300      -2.88844700      -0.14724300
H       -1.86212700      -1.02299400       0.41944000
H       -1.57680000       1.26386400       2.29210200
