11
Extracted from Q-Chem output
N       0.106571      0.539867      1.470151
C       0.290032      0.941602      0.062501
C       0.822266     -0.100447     -0.847954
C      -0.017403     -1.133645     -0.813781
O      -1.125238     -0.929202     -0.047092
C      -0.977399      0.333867      0.557153
H       0.600238     -0.322012      1.675551
H       0.452502      1.997073     -0.111212
H       1.729467     -0.039200     -1.426847
H       0.037673     -2.102414     -1.287686
H      -1.928597      0.805751      0.761478
