12
Extracted from Q-Chem output
C       0.564271      1.547289     -0.391297
C       1.446699      0.572375     -0.586256
C       1.279427     -0.769451     -0.503453
N       0.315522     -1.211198      0.373398
C      -0.959072     -0.499898      0.050568
C      -0.726378      0.944655     -0.080323
C      -1.519513      0.591547      0.894160
H       0.801977      2.558239     -0.085087
H       1.814903     -1.476186     -1.131976
H       0.249903     -2.204433      0.518510
H      -1.568986     -1.048996     -0.666444
H      -1.955558      0.838371      1.846092
