16
Extracted from Q-Chem output
C       1.890295     -0.471770      0.045009
C       0.529303      0.109063     -0.330013
C      -0.614937     -0.799262      0.122732
C      -2.002459     -0.256376     -0.176390
C      -0.522551      2.274954      0.743600
C       0.360507      1.495372      0.229728
H       1.988774     -0.556258      1.129460
H       2.706775      0.152866     -0.321698
H       2.009301     -1.467880     -0.385059
H       0.482953      0.204739     -1.421379
H      -0.483741     -1.767508     -0.369988
H      -0.511771     -0.978990      1.197593
H      -2.771779     -0.972759      0.115289
H      -2.128422     -0.042334     -1.240351
H      -2.201240      0.669485      0.374495
H       1.215683      2.202452      0.261291
