16
Extracted from Q-Chem output
C       1.959190     -0.450395      0.093370
C       0.594156      0.016170     -0.394727
C      -0.558490     -0.885203      0.030235
C      -1.828821     -0.099033     -0.107044
C      -1.038291      1.704565      0.482263
C       0.188313      1.371010      0.136106
H       1.983989     -0.497041      1.184827
H       2.747744      0.230956     -0.231183
H       2.197062     -1.443169     -0.294363
H       0.618428      0.072750     -1.491553
H      -0.601801     -1.799284     -0.570554
H      -0.418866     -1.184232      1.073209
H      -2.686331     -0.516979      0.425958
H      -2.104849      0.144663     -1.131940
H      -2.023233      1.085676      0.576355
H       0.946435      2.143829      0.240182
