10
Extracted from Q-Chem output
O       0.204480      2.701909      0.329813
C       0.824475      1.732664      0.637398
C      -0.311021     -2.052454     -0.303832
O      -0.948701     -0.954042     -0.624482
C      -0.661075      0.256517     -0.376407
O       0.481822      0.462164      0.336005
H       1.760611      1.718785      1.206561
H      -0.780613     -2.950995     -0.659182
H       0.611636     -1.991840      0.247826
H      -1.303712      1.053090     -0.698370
