10
Extracted from Q-Chem output
O      -2.460520      0.481053     -0.399683
C      -1.735946     -0.388035     -0.801115
C      -0.330483     -0.483523     -0.445863
N       0.651254     -1.152433     -0.622274
O       1.809283     -1.241116     -0.333207
C       1.595591      0.787467      1.043186
C       0.419807      1.031096      0.857745
H      -2.082619     -1.187906     -1.476998
H       2.628586      0.637615      1.251932
H      -0.528177      1.526312      0.918845
