18
Extracted from Q-Chem output
C       1.981717      0.020240     -0.483288
C       0.763089     -0.341660      0.331812
C      -1.202709      0.278384     -0.366448
C      -1.889803     -0.839519      0.343542
C      -0.021312      1.373580      0.593187
O      -0.891761      0.034357     -1.644680
H       1.694989      0.260323     -1.510393
H       2.671266     -0.826428     -0.521517
H       2.519275      0.874070     -0.067030
H       0.976096     -0.522967      1.384461
H       0.330589     -1.256664     -0.074477
H      -1.834873     -0.730818      1.426320
H      -1.523725     -1.849649      0.072132
H      -2.943161     -0.789234      0.054663
H       0.942513      1.493968      1.133017
H      -0.778484      1.610857      1.335381
H      -0.003811      2.136928     -0.180011
H      -0.727319     -0.916614     -1.810010
