19
smiles: [C-:1]([C:2]([C:3]([C:4]([C:5]#[C:6][C+:7]([H:18])[H:19])([H:15])[H:16])([H:13])[H:14])([H:11])[H:12])([H:8])[H:10].[H:9][H:17]
C       -2.96868200       0.51136000       0.13024600
C       -2.17100600      -0.09780900      -0.87800100
C       -0.69743400       0.00351800      -0.25233500
C        0.34787600      -0.63526300      -1.27780400
C        1.59735800      -0.51356700      -0.64065700
C        2.51766100      -0.27095400       0.16108700
C        3.52268400      -0.02618600       1.00030700
H       -3.33681600      -0.06046800       0.97206300
H        0.49397900       1.36192900       2.66860800
H       -3.10712700       1.58441700       0.15839600
H       -2.36708700      -1.15872000      -1.04476800
H       -2.14443600       0.43566200      -1.83005100
H       -0.65643100      -0.54350500       0.68578200
H       -0.43692100       1.04479400      -0.08194800
H        0.04751600      -1.67066900      -1.45455400
H        0.27807300      -0.07540600      -2.21314800
H        1.11952500       1.08093300       2.37857700
H        4.07052400       0.90636100       0.95728800
H        3.82011300      -0.75906200       1.73929800
