19
Extracted from Q-Chem output
C      -2.089502      0.711497      0.715249
C      -1.915227      0.068137     -0.566956
C      -0.338310     -0.180122     -0.559635
C       0.485462     -0.862968     -1.694938
C       1.775682     -0.748307     -1.026263
C       2.253840     -0.316930      0.030635
C       2.500153      0.227622      1.248407
H      -2.375912      0.142094      1.589333
H      -0.224371      0.874544      1.649410
H      -2.125507      1.789465      0.798770
H      -2.418657     -0.895370     -0.647807
H      -2.165703      0.703359     -1.416552
H      -0.151299     -0.761426      0.334620
H       0.099358      0.800874     -0.422448
H       0.175837     -1.894173     -1.868586
H       0.431887     -0.311482     -2.634223
H       0.583548      0.771283      1.714491
H       2.882698      1.237944      1.328898
H       2.605992     -0.407445      2.119710
