13
Extracted from Q-Chem output
C       2.174765     -0.176296      0.107762
C       0.712161     -0.152857     -0.160608
N       0.118800     -0.609333     -1.223804
C      -1.232553     -0.383582     -1.049230
C      -1.432574      0.222469      0.150595
O      -2.511882      0.666589      0.831039
N      -0.201356      0.370835      0.718787
H       2.667566     -0.635116     -0.746535
H       2.412606     -0.759894      1.000203
H       2.577711      0.830354      0.241431
H      -1.963957     -0.666593     -1.789534
H      -3.297790      0.502616      0.306881
H      -0.023496      0.790808      1.613013
