17
smiles: [C:4](=[C:5]([H:14])[H:15])([H:12])[H:13].[O:1]([C:2]([C:3]([C:7](=[O:6])[H:16])([H:11])[H:17])([H:9])[H:10])[H:8]
O        2.09224200      -0.31431900       0.80642800
C        1.27731000      -0.69760400      -0.28157900
C        0.05939800      -1.40793200       0.28429500
C       -0.48129400       2.34061200       0.70647100
C       -1.48936800       2.01788600      -0.08539100
O       -1.93697000      -1.82240000      -0.98017600
C       -0.77132100      -2.03860600      -0.79774100
H        2.84242700       0.18086800       0.47482900
H        0.95893500       0.17624700      -0.86359700
H        1.82099600      -1.37073800      -0.95884300
H       -0.55691400      -0.72617300       0.86974300
H        0.14218500       1.58491200       1.17056000
H       -0.23765600       3.37428900       0.92447300
H       -2.11274100       2.77351500      -0.54973000
H       -1.73272400       0.98417400      -0.30354500
H       -0.22716100      -2.75362900      -1.45339700
H        0.41339400      -2.20949400       0.94257300
