17
Extracted from Q-Chem output
O       2.371174     -1.219403      0.943890
C       1.677939     -0.444421     -0.016265
C       0.223518     -0.430255      0.326873
C      -0.647517      1.616360      0.004213
C      -1.957692      1.278620     -0.131511
O      -2.003949     -0.950839     -0.223831
C      -0.769571     -1.107456     -0.484607
H       3.313338     -1.152547      0.779870
H       2.035127      0.591733     -0.015957
H       1.811027     -0.844178     -1.029324
H      -0.019738     -0.340596      1.379698
H      -0.260920      1.951799      0.959549
H      -0.058103      1.875267     -0.868309
H      -2.435863      1.237236     -1.099115
H      -2.616431      1.226563      0.723521
H      -0.434339     -1.314202     -1.518201
H      -0.203229     -1.946346      0.178504
