21
smiles: [C:1]([C:2]1([C:3]([H:12])([H:13])[H:14])[C:4]([H:15])([H:16])[C@:5]1([O:7][H:21])[H:17])([H:8])([H:9])[H:10].[C:6]([H:11])([H:18])([H:19])[H:20]
C       -2.22886500       0.03485500      -1.48757900
C       -0.96071600      -0.02058500      -0.67009000
C       -1.11975000      -0.62076700       0.70529900
C        0.03708100       1.09822000      -0.84377900
C        0.32888100      -0.24933200      -1.41203500
C        2.41852300       0.31629300       2.46308300
O        1.37876700      -0.95408900      -0.82090800
H       -2.97418900       0.67490700      -1.00764700
H       -2.66690600      -0.96090900      -1.59961500
H       -2.04462900       0.43464200      -2.48694600
H        2.41198200      -0.08695700       1.45161100
H       -1.53490800      -1.63136100       0.64493000
H       -1.80334700      -0.01927700       1.30956700
H       -0.16544600      -0.67730300       1.22830200
H        0.62200800       1.37861300       0.02324500
H       -0.19482800       1.90915200      -1.52261400
H        0.26287700      -0.36452000      -2.49226400
H        1.83815600      -0.33385400       3.11599700
H        1.97821600       1.31223800       2.45998300
H        3.44396400       0.37308400       2.82506400
H        1.17699900      -1.89109500      -0.86126200
