6
Extracted from Q-Chem output
C      -0.744782      0.263358     -0.550954
C       0.361243     -0.038122      0.072499
N       1.445288     -0.283607      0.569459
H      -1.222685     -0.465935     -1.188541
H       1.423672     -0.699546      1.495863
H      -1.188774      1.240124     -0.425538
