6
Extracted from Q-Chem output
C      -0.597437      0.179446     -0.374506
C       0.722701      0.014695     -0.037866
N       1.776629     -0.231985      0.476809
H      -1.095612     -0.594639     -0.936124
H       0.354683     -0.461134      0.979433
H      -1.087003      1.109890     -0.134958
