11
Extracted from Q-Chem output
C      -1.204260     -0.059335      0.024433
N      -0.557130      1.242768     -0.033612
C       0.695581      1.172276      0.172665
C       1.411071     -0.096676      0.266498
N       0.886479     -1.159986     -0.238549
N      -0.378725     -1.033325     -0.644105
H      -0.791268     -1.899342     -0.941965
H      -1.359667     -0.324704      1.085920
H      -2.172791     -0.020741     -0.472325
H       1.269872      2.097348      0.183601
H       2.447554     -0.152862      0.572310
