11
smiles: [H:9][H:11].[O:1]=[C:2]1[C:3]([H:6])([H:7])[C:4]([H:8])=[C:5]1[H:10]
O       -0.98429900      -1.17912300      -0.97079300
C       -0.56420000      -0.59791400      -0.01843600
C        0.44480800       0.56752600       0.17549900
C        0.11484900       0.34467500       1.64067600
C       -0.75367200      -0.65789900       1.45874600
H        1.46849600       0.34509700      -0.13091600
H        0.12975900       1.52090400      -0.25241700
H        0.47494400       0.84182300       2.53171300
H        0.76317500       0.24435700      -3.49999300
H       -1.35368300      -1.26879200       2.11918900
H        0.32687100      -0.16485400      -3.05664000
