13
Extracted from Q-Chem output
C       1.656106     -0.232543      0.103017
C       0.337867      0.133429     -0.559074
C      -0.815624     -0.590061      0.083463
C      -1.761213     -0.025154      0.816665
O       0.218002      1.540448     -0.490389
H       2.482625      0.263980     -0.405845
H       1.643479      0.085400      1.146700
H       1.820216     -1.310736      0.068464
H       0.381023     -0.181312     -1.613048
H      -0.601794      1.796588     -0.918707
H      -0.834284     -1.664096     -0.086962
H      -1.758889      1.039828      1.019167
H      -2.560006     -0.611366      1.253101
