12
Extracted from Q-Chem output
O      -2.925626     -0.334296     -0.096345
C      -1.751869     -0.137732     -0.292326
C       1.288490     -1.225110     -0.173985
C       1.308713      0.100378     -0.253810
C       0.355144      0.999070      0.402784
C      -0.975039      0.874439      0.443329
H       2.038169     -1.827069     -0.672142
H       0.544063     -1.749214      0.414588
H       2.119072      0.584233     -0.792908
H       0.797993      1.855819      0.905066
H      -1.569730      1.578320      1.015607
H      -1.208526     -0.696898     -1.076071
