10
Extracted from Q-Chem output
N      -1.695455     -0.149440     -0.013463
C      -0.644297      0.112094     -0.762225
N       0.798267     -1.503617     -0.368952
C       1.720217     -0.988501      0.118458
N       1.276632      1.111179      0.430778
N       0.202915      1.111572     -0.116844
H      -1.708500     -0.061312      0.996316
H      -2.449376     -0.675031     -0.421105
H       2.702983     -0.878427      0.527701
H      -0.243875      2.010161     -0.393706
