11
Extracted from Q-Chem output
O      -2.225589      0.464801     -0.499522
C      -0.928324      0.172292     -0.419846
N       0.063559      0.973340     -0.342023
C       1.197325      0.165358     -0.267026
O       2.391629      0.782089     -0.209828
C       1.040948     -1.197133     -0.215912
N      -0.538533     -1.154676     -0.447677
H      -2.316846      1.422821     -0.465359
H       2.231660      1.729074     -0.212879
H       0.091792     -1.455038     -1.310441
H      -1.122785     -1.905823     -0.111426
