16
smiles: [C:1]([C:2]([N:3]([H:11])[H:13])=[O:4])([H:8])([H:9])[H:10].[C:5]1([H:12])=[C:6]([H:14])[C:7]1([H:15])[H:16]
C        3.16300900      -0.20038100       0.03873100
C        1.66053500      -0.25277600       0.20108100
N        0.95008600       0.61816100      -0.56433400
O        1.12305000      -1.02876300       0.96055700
C       -2.07597800      -0.48838600       0.62231700
C       -3.35316800      -0.36847900       0.55394500
C       -2.57309800       0.54750800      -0.34260900
H        3.61405800      -0.11177300       1.02605000
H        3.49607600      -1.14518200      -0.39159500
H        3.50723600       0.61896100      -0.59219200
H       -0.05185300       0.60478200      -0.49477200
H       -1.20788800      -0.96387100       1.04256200
H        1.38900800       1.25907400      -1.19595100
H       -4.33332500      -0.67148000       0.87621000
H       -2.53424600       0.34864600      -1.41292200
H       -2.48671400       1.60355700      -0.08963000
