16
Extracted from Q-Chem output
C      -1.392874     -1.264246     -0.635649
C      -0.668690      0.780770     -0.511334
O      -1.812032      1.431202     -0.218991
C       0.165178      0.639009      0.730142
N       1.283268     -0.255809      0.571672
C       2.543660      0.177653      0.329568
O       2.881749      1.334132      0.252214
H      -0.713522     -2.083522     -0.870883
H      -2.278653     -1.287208     -1.268902
H      -1.670803     -1.248705      0.413742
H      -0.740077     -0.193858     -1.222973
H      -2.194791      1.770091     -1.031502
H       0.572110      1.633807      0.926438
H      -0.428119      0.353988      1.608377
H       1.126442     -1.246649      0.614566
H       3.257121     -0.658192      0.215177
