11
Extracted from Q-Chem output
N      -1.535333     -0.751694     -0.121102
C      -0.327804      0.039945      0.034401
C       0.702163     -0.799974     -0.304146
N       1.781329     -0.009976     -0.138264
N       1.500890      1.247493      0.274159
C       0.183602      1.295737      0.387415
H      -2.170112     -0.463452     -0.857000
H      -2.050323     -0.956643      0.727686
H      -0.596710     -1.566436     -0.445126
H       2.745828     -0.244329     -0.283615
H      -0.297320      2.206572      0.709704
