15
Extracted from Q-Chem output
C      -1.752923      0.552851      0.376645
C      -1.028923     -0.427568     -0.535325
C       0.191383     -1.071701      0.114658
N       1.207468     -0.100380      0.527791
C       1.984258      0.480966     -0.329717
O       2.354847      0.651018     -1.429031
H      -2.620635      0.986818     -0.122230
H      -2.104273      0.059163      1.286218
H      -1.095677      1.371212      0.675346
H      -0.716709      0.074119     -1.456171
H      -1.710042     -1.229250     -0.836216
H       0.636489     -1.805196     -0.563453
H      -0.103491     -1.603578      1.021209
H       2.047185      0.763794      1.179169
H       2.704481      1.286721      0.676841
