17
Extracted from Q-Chem output
C      -1.927468     -0.453148      0.227334
C      -0.697586      0.113714     -0.448095
O      -0.385402      1.376633      0.201607
C      -0.586680      2.452174     -0.479462
C       1.902123     -0.287771     -0.442965
C       1.380524     -0.808075      0.866446
C       0.500001     -0.797462     -0.345200
H      -2.770581      0.230820      0.122669
H      -1.737264     -0.624693      1.288133
H      -2.197089     -1.404939     -0.232619
H      -0.903401      0.363041     -1.491960
H       2.049230      0.780576     -0.531689
H      -0.288971      3.252559      0.237086
H       2.620465     -0.886010     -0.987094
H       1.176018     -0.079445      1.639782
H       1.744711     -1.760969      1.226328
H       0.311438     -1.760275     -0.807592
