17
Extracted from Q-Chem output
C      -2.039918     -0.568682      0.204291
C      -0.836741      0.041199     -0.472957
O      -0.553465      1.288878      0.148465
C       0.471429      1.931783     -0.418715
C       1.676006      0.033103     -0.348522
C       1.231676     -0.577407      0.930582
C       0.448048     -0.789171     -0.328539
H      -2.907977      0.084951      0.113329
H      -1.835847     -0.737906      1.262563
H      -2.280555     -1.527277     -0.257776
H      -1.025920      0.213483     -1.538091
H       1.262547      1.181485     -0.956273
H       0.925688      2.579584      0.342602
H       2.591756     -0.250751     -0.850382
H       0.783412      0.059629      1.686442
H       1.815553     -1.401520      1.321342
H       0.423386     -1.762388     -0.802978
