13
smiles: [C:1]1([H:7])=[C:2]([H:9])[C:3]1([C@@:4]1([H:11])[N:5]=[C:6]1[H:13])[H:10].[H:8][H:12]
C        1.46180900      -0.69253400      -0.18249000
C        1.39762000       0.57952000      -0.36141400
C        0.42018300      -0.23045700      -1.15423200
C       -1.04111200      -0.26032300      -0.79709200
N       -1.45155400       0.16697100       0.60336300
C       -1.76307800       0.90815900      -0.34953100
H        1.89411600      -1.53916900       0.32029700
H        0.53698300      -0.54610000       3.36111000
H        1.74673500       1.56762900      -0.11906900
H        0.59578600      -0.38164200      -2.22123700
H       -1.60028700      -1.09964300      -1.20627700
H        0.05244800      -0.39744600       2.81568400
H       -2.26019900       1.85495500      -0.51290500
