11
Extracted from Q-Chem output
O      -1.310197      1.160104      2.421295
C      -0.393542      1.043377      1.725962
C      -0.962007     -1.011840     -1.344388
N      -0.446303     -0.866409     -0.207957
C       0.787843     -0.114865     -0.109035
C       0.657590      0.949861      0.948695
H      -1.889248     -1.573501     -1.438056
H      -0.523993     -0.596436     -2.260706
H       1.078297      0.337706     -1.068711
H       1.576466     -0.819911      0.173864
H       1.449740      1.665358      1.121591
