14
Extracted from Q-Chem output
O      -1.925762     -0.670881      1.461849
C      -1.427625     -0.339890     -0.331496
C      -0.114658      0.023735     -0.006840
C       1.228626     -0.529016     -0.451922
C       1.651071      0.947305     -0.418234
O       0.317191      1.382508     -0.104194
H      -2.470951      0.023428      1.853163
H      -1.645053     -1.348315     -0.656637
H      -2.161304      0.417539     -0.583059
H      -0.737423     -0.313473      1.215126
H       1.740292     -1.185846      0.248767
H       1.239161     -0.978964     -1.445136
H       1.999642      1.369853     -1.363341
H       2.352824      1.206079      0.378849
