12
Extracted from Q-Chem output
C      -1.293598      0.238025     -0.121162
O      -0.560307      0.970652     -1.149639
C       0.731191      1.050164     -1.183182
C       1.457569      0.338547     -0.085850
O       0.744750     -0.300373      0.956134
C      -0.441967     -0.860305      0.453245
H      -2.187635     -0.137248     -0.617441
H      -1.575001      0.960544      0.645390
H      -0.222408     -1.614594     -0.316684
H       2.111842     -0.375179     -0.614153
H       2.123152      1.077731      0.367564
H      -0.956960     -1.354155      1.278024
