12
Extracted from Q-Chem output
C      -1.281245      0.435547     -0.007324
O      -0.589121      0.862983     -1.158269
C       0.502213     -0.030219     -1.208933
C       1.452176      0.231359     -0.028733
O       0.764681     -0.379796      1.077202
C      -0.387615     -0.725390      0.411377
H      -2.288559      0.108318     -0.285313
H      -1.359978      1.194460      0.782070
H       0.002584     -1.138141     -0.857553
H       2.420354     -0.258692     -0.144565
H       1.599126      1.306233      0.114259
H      -0.856964     -1.618317      0.830241
