15
Extracted from Q-Chem output
C       1.886605     -0.513701      0.703226
C       0.920892      0.587511      0.741696
O       0.363988      1.163740     -1.216962
C      -0.230929      0.394742     -0.172891
C      -1.664649      0.727479      0.231955
O      -2.137296     -0.527069     -0.277251
C      -0.823730     -0.922410     -0.691281
H       1.528916     -1.105286      1.567579
H       1.862944     -1.174185     -0.171643
H       2.904746     -0.215647      0.950329
H       0.528211      2.048023     -0.865861
H      -1.822668      0.825038      1.310383
H      -2.102030      1.583953     -0.290261
H      -0.746856     -1.053061     -1.773627
H      -0.492339     -1.832603     -0.182217
