13
Extracted from Q-Chem output
C      -1.642237      0.599506      0.214359
C      -0.684649     -0.548934      0.285792
O      -0.228277     -1.101297     -0.980030
C       0.670978     -0.431480     -0.208756
C       1.660680      0.543380     -0.414806
H      -1.708779      1.083659      1.190513
H      -2.636910      0.241526     -0.055956
H      -1.319862      1.332536     -0.522792
H      -0.888039     -1.314891      1.027577
H       1.298652     -1.674037      0.454854
H       1.823001     -0.789985      0.347863
H       1.555511      1.488693      0.097417
H       2.277709      0.470855     -1.299189
