12
Extracted from Q-Chem output
C      -1.808376      0.939241     -0.055446
C      -1.165859     -0.382054      0.232157
O      -0.687036     -1.141594     -0.917818
C       0.220637     -0.639510     -0.033163
C       1.492210     -0.578405      0.154057
C       2.773792     -0.501453      0.372318
H      -1.251204      1.476326     -0.822289
H      -1.828209      1.544934      0.852463
H      -2.836226      0.798007     -0.394077
H      -1.658788     -1.012501      0.968830
H       3.294782     -1.254673      0.954501
H       3.366166      0.316309     -0.025296
