12
Extracted from Q-Chem output
C      -1.660649      0.760503      0.057626
C      -0.696874     -0.347519      0.335314
O      -0.210216     -1.096475     -0.823066
C       0.670946     -0.291791     -0.151353
C       1.698156      0.621524     -0.685141
C       2.274558     -0.260362      0.108568
H      -1.316589      1.363491     -0.781395
H      -1.750454      1.400051      0.937572
H      -2.647011      0.354160     -0.172425
H      -0.923351     -0.994349      1.179726
H       1.351179     -0.964142      0.741959
H       3.150760     -0.835229      0.374520
