15
Extracted from Q-Chem output
C       0.759387      1.207717      0.143068
C       1.354267     -0.184427      0.017180
C       0.318506     -1.237133      0.089968
O      -0.896270     -1.208790      0.771141
C      -1.600826     -0.038241      0.678771
C      -0.305873      0.860328     -0.917241
C       0.382075     -0.432367     -1.176648
H       0.471802      1.574236      1.129632
H       1.417580      1.950761     -0.312401
H       2.404612     -0.445877      0.088522
H       0.680502     -2.256364      0.041351
H      -1.372967      0.696885      1.449309
H      -2.670204     -0.255560      0.623607
H      -1.468780      0.641484     -0.435433
H       0.505999     -0.918421     -2.135279
