14
Extracted from Q-Chem output
C      -0.652866     -1.512526      0.329174
C       0.027553     -0.225831     -0.038020
N      -0.458043      0.973135      0.672009
O      -0.436238      2.148318     -0.124035
C       0.437938     -0.076295     -1.465562
C       0.880796      0.517986      0.939977
O       0.311082     -0.959167     -2.270513
H      -1.544376     -1.659758     -0.280919
H       0.014881     -2.356897      0.154905
H      -0.943251     -1.497440      1.379266
H      -1.282336      2.550314      0.084079
H       0.883137      0.894607     -1.743434
H       1.680205      1.129834      0.536404
H       1.050107      0.102879      1.926339
