12
Extracted from Q-Chem output
C      -1.108209     -0.613802      0.573378
C      -0.613614      0.546398     -0.883135
C       0.515400      1.430879     -0.302311
C       1.322680      0.484892      0.151127
C       0.532498     -0.688692     -0.372770
O       0.124354     -0.387774     -1.653718
H      -1.647524      0.220072      1.011868
H      -0.607593     -1.112574      1.411666
H      -1.803413     -1.298238      0.094019
H       0.542989      2.508760     -0.296142
H       2.236877      0.478243      0.727789
H       0.690880     -1.741379     -0.185312
