14
Extracted from Q-Chem output
C      -1.468390     -0.904221     -0.168019
C      -1.008024      0.496274     -0.467538
C      -0.222846      1.104808      0.614447
C       0.896301      0.607947     -0.315106
C       1.748744     -0.496430      0.206757
O       2.939983     -0.527909      0.061523
H      -1.023015     -1.413826      0.696141
H      -2.530757     -0.758962      0.058851
H      -1.438427     -1.555526     -1.041882
H       0.273091      0.263924     -1.252798
H      -0.219080      0.609593      1.589993
H      -0.233839      2.186306      0.706379
H       1.466137      1.414554     -0.768514
H       1.218785     -1.306186      0.743947
