19
Extracted from Q-Chem output
C      -2.160028      0.553422      0.029550
C      -0.990789     -0.338708      0.438753
C      -0.385647     -1.065266     -0.765924
O       0.829905     -1.624744     -0.294754
C       1.708013     -0.730051      0.226104
C       2.184312      0.349019     -0.715078
C       0.114372      0.423972      1.140072
H      -2.938439     -0.024038     -0.473924
H      -1.828978      1.339055     -0.654520
H      -2.613599      1.034545      0.896961
H      -1.354955     -1.110926      1.122431
H      -1.013680     -1.888215     -1.108498
H      -0.224983     -0.380347     -1.605432
H       1.215256     -0.276001      1.302627
H       2.912400     -0.139543     -1.368529
H       2.720499      1.113108     -0.152330
H       1.445237      0.842544     -1.356999
H       0.337615      1.396646      0.707031
H      -0.054639      0.527593      2.213910
