14
Extracted from Q-Chem output
O       1.356895      1.066241      0.596648
C       1.618409     -0.068413      0.031203
C       0.175110     -1.151398      0.114399
C      -0.846591     -0.452598     -0.532406
C      -1.569432      0.691224      0.050875
O      -0.666640      1.576088     -0.557577
H       0.331738      1.489047     -0.003353
H       1.801977     -0.070215     -1.053871
H       2.326216     -0.716717      0.561476
H       0.527548     -2.041033     -0.399171
H       0.071300     -1.257023      1.190663
H      -1.004220     -0.595316     -1.596414
H      -1.549360      0.719660      1.144847
H      -2.586097      0.835838     -0.315932
