15
Extracted from Q-Chem output
C      -1.465792     -0.805461     -0.751585
N      -1.513001      0.764410      1.142653
C      -0.736021     -0.290395      0.482752
C       0.598046      0.337076      0.249239
C       1.751371     -0.329140     -0.410467
C       0.491036      1.567764      0.749789
N      -0.812033      1.783865      1.283899
H      -1.582509     -0.007728     -1.486439
H      -2.455818     -1.166401     -0.475540
H      -0.913110     -1.625903     -1.211488
H      -0.651289     -1.100466      1.219244
H       2.627273      0.318133     -0.432258
H       1.503276     -0.602298     -1.439568
H       2.020339     -1.251462      0.109862
H       1.217191      2.365704      0.797720
