14
Extracted from Q-Chem output
C      -1.712588      0.204093      0.917037
C      -0.491547     -0.273759      0.205867
C      -0.341664     -1.425197     -0.509641
O       0.823189     -1.604278     -1.128801
C       1.608523     -0.454009     -0.797214
C       0.712330      0.427298     -0.108856
N       1.194977      1.644537     -0.272803
H      -2.519184     -0.526226      0.841575
H      -2.072129      1.145295      0.494003
H      -1.516511      0.372794      1.977752
H      -1.082459     -2.196851     -0.683938
H       2.477174     -0.769162     -0.219693
H       1.992117      0.925082     -1.106908
H       1.000297      2.380685      0.396728
