14
Extracted from Q-Chem output
C      -2.002343      0.230941     -0.239504
C      -0.806869      0.394996      0.665478
C       0.607946     -1.291535      0.328551
O       1.792166     -0.765811      0.801129
C       2.505647      0.107810      0.041999
O       2.141411      0.608809     -0.974253
H      -2.653720     -0.577076      0.097304
H      -2.594729      1.148718     -0.257483
H      -1.697589      0.015084     -1.264280
H      -1.062224      0.632455      1.700948
H      -0.068212      1.098779      0.298500
H      -0.385655     -0.748403      0.935385
H       0.503296     -1.028398     -0.732149
H       3.478675      0.279328      0.519433
