12
Extracted from Q-Chem output
C      -1.317408      0.616267     -0.596854
C      -0.867402     -0.798121     -0.379115
N       0.068521     -1.305685     -1.262053
C       0.602157     -1.158019      0.124508
C       1.375247     -0.070140      0.341736
N       2.021434      0.922579      0.585123
H      -0.589346      1.246000     -1.137331
H      -2.224352      0.577397     -1.205080
H      -1.587589      1.099848      0.342657
H       1.636711      1.602881      1.240947
H       0.484712     -0.622655     -1.917120
H       0.777136     -2.047013      0.712250
