12
Extracted from Q-Chem output
C      -1.019184      0.758386     -0.557949
C      -0.368262     -0.450655      0.059737
N      -0.154420     -1.497640     -0.908681
C       1.022763     -0.937578     -0.230200
C       1.560501      0.360244     -0.003560
N       1.406276      1.106482      0.918415
H      -0.583207      0.997003     -1.539532
H      -2.074201      0.514005     -0.709681
H      -0.959909      1.639911      0.076426
H       0.262672      0.359458      1.292273
H      -0.316841     -1.156416     -1.854631
H       1.515022     -1.661940      0.404869
