14
Extracted from Q-Chem output
C      -1.772965      0.014588      0.416968
C      -0.266138      0.012488      0.464153
C       0.421498     -1.050167     -0.398444
O       1.588128     -0.407974     -0.886380
C       1.565100      0.921600     -0.417703
O       0.241642      1.216286     -0.091731
H      -2.166667     -0.921797      0.816916
H      -2.173937      0.835782      1.011224
H      -2.117666      0.128660     -0.612037
H       0.083640     -0.074366      1.503507
H       0.693460     -1.940891      0.173470
H      -0.208651     -1.345134     -1.243868
H       2.213558      1.012152      0.468832
H       1.898997      1.598774     -1.204908
