13
Extracted from Q-Chem output
C       1.067481     -1.642206     -0.502322
C      -0.456266      0.548455      0.373918
C      -0.864126      1.932752      0.348749
N       0.174667      1.388184     -0.567052
C      -0.548561     -0.659181      0.892219
O       0.096742     -1.788882      0.512338
H       1.531989     -2.618003     -0.628948
H       0.608087     -1.336192     -1.447861
H       1.823582     -0.904861     -0.221372
H      -1.835254      2.179113     -0.069313
H      -0.486089      2.634740      1.083212
H      -0.190691      1.260702     -1.504530
H      -1.213072     -0.840666      1.726519
