13
Extracted from Q-Chem output
C       1.356113     -1.251235     -0.421005
C      -0.163549      0.362569      0.326706
C      -0.539673      1.780784      0.339714
N      -0.210779      1.103103     -0.918883
C      -0.853663     -0.788101      0.718488
O      -0.403176     -1.903776      0.404553
H       1.259439     -2.205877     -0.918974
H       1.489855     -0.405741     -1.084710
H       1.961191     -1.261104      0.474385
H      -1.576405      2.057894      0.515899
H       0.187535      2.519089      0.658926
H      -1.050758      0.904380     -1.453871
H      -1.747642     -0.758035      1.354330
