12
Extracted from Q-Chem output
C       1.292284      0.696316     -0.671164
C       2.281049      1.295133     -1.242766
C       0.678786     -0.643978     -0.732098
N       0.545776     -1.454957      0.469694
C      -0.662411     -0.876534     -0.120498
C      -1.339767      0.203364      0.549851
C      -1.889978      1.102011      1.119536
H       0.871960      1.474973     -0.009233
H       0.929288     -1.213506     -1.618202
H       0.821489     -0.928277      1.291285
H      -1.314905     -1.600766     -0.594370
H      -2.387727      1.896460      1.624390
