16
Extracted from Q-Chem output
C      -1.662363      1.567590      1.341215
O      -1.858165      0.270629      0.815514
C      -1.323626      0.095359     -0.452339
C       2.501972     -0.896970     -1.448289
N       1.837526     -1.298922     -0.361214
C       0.688975     -0.913654      0.148826
O       0.082767      0.137712     -0.468118
H      -0.600898      1.784598      1.488924
H      -2.090314      2.326921      0.675793
H      -2.175779      1.602394      2.300238
H      -1.636586      0.896876     -1.130693
H      -1.676845     -0.878012     -0.801639
H       2.080034     -0.117504     -2.056312
H       3.420190     -1.403291     -1.685711
H       2.288037     -2.022591      0.180250
H       0.371287     -1.251077      1.122104
