16
Extracted from Q-Chem output
C      -1.688408      0.713919      1.184369
O      -1.307503     -0.094159      0.077757
C      -0.770108      0.555085     -0.942167
C       1.257817     -1.252217     -1.322568
N       1.482803     -1.089757      0.009941
C       1.368500      0.102381      0.593804
O       1.069781      1.087933     -0.130014
H      -0.889811      1.416564      1.429495
H      -2.603477      1.263449      0.947046
H      -1.873144      0.041394      2.018712
H      -0.859670      1.632561     -0.968144
H      -0.805412      0.011803     -1.868964
H       1.592527     -0.453268     -1.963423
H       1.277510     -2.270894     -1.681545
H       1.554542     -1.900943      0.602479
H       1.440264      0.136208      1.681771
