17
Extracted from Q-Chem output
C       1.789340     -0.648760     -0.097013
C       0.725437      0.292563      0.415500
C      -0.019566      1.243984     -0.554415
C      -1.321210      0.961721      0.211680
O      -2.181851      0.031787     -0.474930
C      -1.620621     -1.047050      0.126588
C      -0.642862     -0.202660      0.960879
H       2.133310     -1.320321      0.692665
H       2.651730     -0.084501     -0.459215
H       1.420368     -1.261554     -0.922564
H       1.148263      0.896071      1.223887
H       0.319620      2.278224     -0.573938
H      -0.078500      0.869157     -1.578038
H      -1.876640      1.776874      0.669545
H      -0.495668     -1.703570     -1.120180
H      -1.232572     -1.980807     -0.646772
H      -0.720247     -0.390008      2.029998
