13
smiles: [C:1](=[C:6](/[C:4](=[N:5]\[H:12])[H:11])[H:13])([H:7])[H:8].[C:2](#[C:3][H:10])[H:9]
C       -0.01087100      -1.55312800       0.79666900
C        2.38055700       0.89431000      -1.94727100
C        1.37108200       1.41168600      -1.57249800
C       -1.42444900       0.47460100       0.93055900
N       -1.55219000       0.84831200      -0.27152800
C       -0.93862600      -0.83590300       1.41581200
H        0.32194000      -2.50673000       1.18636100
H        0.46527900      -1.20080800      -0.11243100
H        3.28013800       0.43396300      -2.28329800
H        0.47077300       1.87122800      -1.23763600
H       -1.70386400       1.19234500       1.70571700
H       -1.29913500       0.09375500      -0.91150400
H       -1.35830800      -1.18680900       2.35420500
