15
Extracted from Q-Chem output
C      -2.277316     -0.687930     -0.094620
N      -1.351515      0.217239     -0.752587
C      -0.235953      0.591692     -0.006070
N      -0.183401      1.040309      1.191443
C       1.222464     -0.049646     -0.524915
O       0.847292      1.124594     -0.911239
C       2.675329     -0.289532     -0.380467
H      -3.059540     -0.956594     -0.803192
H      -2.759602     -0.191088      0.747476
H      -1.795647     -1.603980      0.269567
H      -1.079763     -0.117924     -1.663470
H      -1.079938      0.968231      1.657129
H       2.936179     -1.310899     -0.653577
H       3.260999      0.442299     -0.942268
H       2.886519     -0.169475      0.687507
