10
Extracted from Q-Chem output
N       1.829080      0.422747     -0.282915
C       1.374732     -0.572980      0.330972
O       0.072720     -0.925836      0.304149
C      -0.763403     -0.183988     -0.495152
C      -2.011939      0.118604     -0.012465
N      -3.120094      0.379706      0.399742
H       2.829245      0.507135     -0.145252
H       1.922645     -1.285052      0.947323
H      -0.358143      0.313256     -1.361128
H      -1.800952      1.206934      0.323171
