12
Extracted from Q-Chem output
O      -2.499295      0.921838      0.223285
C      -1.771069     -0.009516      0.026223
C      -0.439900      0.161195     -0.663976
C       0.680185      0.781883      0.245797
N       1.906620      0.508885     -0.302423
C       1.360288     -0.707582      0.005919
O       0.239304     -1.072942     -0.823705
H      -2.017760     -1.036481      0.360041
H      -0.549178      0.737055     -1.584738
H       0.515944      1.510799      1.041024
H       0.610413     -0.418538      1.083521
H       1.945305     -1.505003      0.456999
