10
Extracted from Q-Chem output
O       1.421460      1.530998     -0.498304
C       0.474138      0.628440     -0.162038
C       0.270348      0.070100      1.083801
N      -0.796473     -0.882110      0.705061
N      -1.260383     -0.769029     -0.567439
C      -0.480062      0.147508     -1.088671
H       1.935312      1.722757      0.290861
H       0.283625     -1.303633      0.908043
H      -1.425418     -1.269551      1.393695
H      -0.597151      0.431633     -2.124807
