19
Extracted from Q-Chem output
C      -2.318483     -0.522075      0.467504
C      -1.114387     -0.145558     -0.381034
C       0.187986     -0.124295      0.440421
C       1.478538     -0.049700     -0.370856
C       2.718419     -0.114472      0.511488
C      -1.314018      1.181676     -1.072790
O      -2.249499      1.913601     -0.894790
H      -2.185732     -1.516112      0.897903
H      -2.454735      0.190219      1.282998
H      -3.235844     -0.518644     -0.121134
H       0.208372     -1.035163      1.047277
H      -0.980824     -0.881969     -1.185979
H       0.146325      0.709259      1.150975
H       1.507053      0.871301     -0.959845
H       1.497149     -0.874086     -1.091488
H       3.633143     -0.077107     -0.082232
H       2.737386     -1.038694      1.094182
H       2.744255      0.720886      1.215096
H      -0.515228      1.471818     -1.786659
