19
Extracted from Q-Chem output
C      -2.580998     -0.574223      0.238275
C      -1.251892     -0.430133     -0.444806
C       0.210723      0.019874      0.394808
C       1.529325     -0.460689     -0.157921
C       2.620521      0.554732      0.166581
C      -0.657276      1.034729     -0.409926
O      -1.303978      1.946923      0.189955
H      -3.334129     -0.639024     -0.548976
H      -2.676008     -1.455841      0.872485
H      -2.759659      0.342772      0.804813
H      -0.481546     -1.036928      0.391876
H      -1.002376     -1.044860     -1.302800
H       0.103146      0.213778      1.458255
H       1.436583     -0.565153     -1.242979
H       1.802308     -1.445029      0.234786
H       3.574494      0.238307     -0.256140
H       2.750007      0.661574      1.245195
H       2.370224      1.536178     -0.237911
H      -0.149595      1.228409     -1.373867
