12
Extracted from Q-Chem output
C      -1.153698     -0.859224     -0.649513
C      -0.518763     -0.076546      0.463956
C       0.855562      0.450754      0.284805
C       2.121963      0.112663      0.175921
C      -0.063336      1.515366      0.267781
C      -1.302664      1.733220      0.429900
H      -0.892081     -0.428876     -1.615820
H      -0.788098     -1.889151     -0.619217
H      -2.237927     -0.870674     -0.550294
H      -0.772062     -0.351973      1.481470
H       2.422608     -0.923279      0.255003
H       2.883970      0.860929      0.007113
