12
Extracted from Q-Chem output
C      -1.306688     -0.901934     -0.683039
C      -0.595400     -0.152054      0.436069
C       0.875921     -0.156420      0.359128
C       2.070834      0.194250      0.255783
C      -0.601096      1.337273      0.358176
C       0.345628      2.123613      0.269832
H      -0.974900     -0.542245     -1.656185
H      -1.117648     -1.974650     -0.615061
H      -2.379816     -0.731712     -0.598178
H      -0.927763     -0.511889      1.412283
H       3.056064     -0.228381      0.211923
H       1.661674      1.501601      0.212474
