19
Extracted from Q-Chem output
C      -2.819422      0.057951     -0.487940
C      -1.534739     -0.336440      0.227059
C      -0.327605      0.467186     -0.245485
C       0.923082      0.065790      0.503608
C       1.826136     -0.978278     -0.114631
C       2.306787      0.422286     -0.164194
C       1.233384      0.659254      1.749378
H      -2.736003     -0.098633     -1.566581
H      -3.049693      1.113307     -0.323712
H      -3.669451     -0.526656     -0.132133
H      -1.339761     -1.404086      0.079231
H      -0.191882      0.322647     -1.323633
H      -0.504744      1.531789     -0.072917
H       1.472953     -1.422833     -1.037591
H       2.345310     -1.652465      0.553944
H       2.175262      1.010369     -1.062610
H       3.151280      0.714468      0.445001
H      -1.647277     -0.188930      1.305495
H       2.082310      0.105050      2.188585
