19
Extracted from Q-Chem output
C      -2.729883      0.082099     -0.070780
C      -1.282717     -0.306310      0.133151
C      -0.226702      0.402686     -0.708777
C       0.963877      0.176736      0.190182
C       2.013529     -0.840387     -0.163866
C       2.360410      0.624742     -0.082563
C       0.350556      0.341262      1.552970
H      -3.026350     -0.148322     -1.098335
H      -2.874445      1.152493      0.086127
H      -3.396508     -0.460485      0.600356
H      -1.132592     -1.385929      0.131496
H      -0.127684      0.005842     -1.721488
H      -0.463192      1.468883     -0.769621
H       1.983200     -1.299576     -1.145603
H       2.380554     -1.486058      0.625564
H       2.551002      1.161904     -1.003744
H       2.956415      0.958204      0.758335
H      -1.021610      0.112616      1.222377
H       0.543007     -0.560385      2.164320
