13
Extracted from Q-Chem output
N      -2.101132     -0.065469     -0.230391
C      -0.745706     -0.202246      0.103871
O      -0.014936      0.549629     -0.808000
C      -0.209922     -1.390779      0.740319
O      -0.329010     -0.138904      1.451354
C       1.269689      0.866704     -0.530989
N       1.959736      1.416730     -1.421986
H      -2.350154      0.907209     -0.345973
H      -2.700250     -0.503438      0.452491
H       0.808018     -1.703915      0.522509
H      -0.876511     -2.178668      1.078523
H       1.578241      0.627851      0.487834
H       2.887134      1.616356     -1.063460
