16
Extracted from Q-Chem output
C      -2.340045      0.440871     -0.057481
C      -1.155127     -0.514310     -0.005389
C       0.189403      0.203845     -0.032333
C       1.367760     -0.761435      0.023421
C       2.771288     -0.251172      0.009878
O       2.749123      1.059851     -0.048422
H      -3.289372     -0.097493     -0.041107
H      -2.330666      1.125099      0.794472
H      -2.317079      1.046071     -0.967130
H      -1.218839     -1.128238      0.899573
H      -1.209933     -1.211769     -0.848270
H       0.258376      0.816039     -0.936761
H       0.248048      0.903153      0.807280
H       1.333023     -1.487232     -0.800676
H       1.321823     -1.401533      0.915469
H       3.659268      1.373422     -0.054264
