16
Extracted from Q-Chem output
C      -2.363715      0.390963     -0.046708
C      -1.145204     -0.521785     -0.012409
C       0.170107      0.249044     -0.025481
C       1.382447     -0.671419      0.014918
C       2.711098      0.000374     -0.006970
O       2.738255      1.298303     -0.065555
H      -3.292638     -0.181894     -0.040274
H      -2.378294      1.058911      0.817810
H      -2.362678      1.013071     -0.944980
H      -1.185997     -1.154248      0.880925
H      -1.174154     -1.203807     -0.868948
H       0.219582      0.879058     -0.918361
H       0.204931      0.935269      0.825703
H       1.388618     -1.377647     -0.824899
H       1.381516     -1.311106      0.906332
H       3.743178      0.712086     -0.032842
