12
Extracted from Q-Chem output
C      -1.677532      0.433273     -0.568176
C      -0.704375     -0.056962      0.505664
C       0.563502     -0.532032      0.090649
O       0.445780     -1.660421     -0.509832
C       1.851242      0.036519      0.323616
C       2.914516      0.545794      0.538608
H      -2.705458      0.315716     -0.223496
H      -1.577768     -0.129253     -1.497515
H      -1.521571      1.492299     -0.795025
H      -0.675065     -1.481164      0.030569
H      -0.729504      0.540290      1.414149
H       3.865012      0.989927      0.723034
