8
Extracted from Q-Chem output
O      -0.023290     -2.273349      0.237847
C       1.141963      1.036957     -0.025279
C       0.020811      0.393572     -0.029322
C      -1.080776     -0.310718     -0.024334
N      -1.095851     -1.754755      0.132250
H       1.683226      1.212829     -0.947682
H       1.562871      1.413535      0.899790
H      -2.064964      0.124404     -0.130487
