14
Extracted from Q-Chem output
C       1.772686     -0.619398      0.486007
C       1.130244      0.051078     -0.702860
O       1.595850     -0.039013     -1.809761
C      -2.320121     -0.202062      0.068658
C      -1.128445      0.223431      0.457280
C      -0.129515      0.871228     -0.454648
H       2.754133     -0.996259      0.208085
H       1.857973      0.071677      1.327615
H       1.145580     -1.452493      0.813020
H      -0.567681      1.097115     -1.426672
H      -2.650914     -0.098920     -0.959435
H      -3.009241     -0.664865      0.764211
H      -0.839417      0.102909      1.498372
H       0.207015      1.818717     -0.015078
