16
Extracted from Q-Chem output
C       1.292848      0.634963     -0.141553
C       0.152887     -0.103848      0.248871
C       0.367624     -1.451627      0.922975
C      -1.096045      0.736534      0.531605
N      -1.590989      0.588059     -0.864108
C      -0.795692     -0.440519     -1.145542
O      -0.643037     -1.340628     -1.904166
H       1.565430      1.574241      0.327100
H       0.675911      1.529296     -1.328359
H       2.099617      0.120759     -0.657688
H       0.775180     -1.333334      1.928076
H       1.054803     -2.058397      0.332086
H      -0.577185     -1.991646      0.992285
H      -1.781699      0.294541      1.257484
H      -0.917981      1.778994      0.804584
H      -0.156410      1.453635     -1.421248
