18
smiles: [C:1](/[C:2](=[C:4](/[C:5]([H:15])([H:16])[H:17])[H:14])[H:10])([H:7])([H:8])[H:9].[C:3]([O:6][H:18])([H:11])([H:12])[H:13]
C       -1.59038800       1.91273800       0.59610700
C       -0.50499800       1.10672800       1.23684100
C       -0.39813800      -1.81178300      -1.69917000
C        0.59480300       0.68763900       0.62747100
C        1.67990800      -0.11866400       1.26820700
O        0.91113400      -1.34063800      -1.93564600
H       -1.72714500       2.86713600       1.11164900
H       -1.36527700       2.12197300      -0.45089500
H       -2.54849200       1.38796800       0.63948600
H       -0.64730200       0.85444700       2.28664100
H       -0.42737300      -2.89670200      -1.54599300
H       -0.75193400      -1.33064700      -0.78800600
H       -1.08609900      -1.55241700      -2.51194100
H        0.73696300       0.93990100      -0.42233000
H        1.81607600      -1.07323600       0.75282600
H        1.45473800      -0.32761500       2.31526200
H        2.63829600       0.40555000       1.22462700
H        1.24616800      -1.75088400      -2.73337000
