18
Extracted from Q-Chem output
C      -1.489096      1.475988      0.266088
C      -0.486306      0.414942      0.602666
C      -0.968935     -1.319313     -0.936897
C       0.835910      0.424819      0.080371
C       1.909218     -0.271410      0.886697
O       0.630202     -0.450861     -1.268336
H      -1.584990      2.256157      1.030868
H      -1.237897      1.969135     -0.677201
H      -2.495043      1.050408      0.140986
H      -0.621015     -0.090577      1.555524
H      -0.991209     -1.945559     -0.056599
H      -1.850494     -0.706323     -1.066437
H      -0.750347     -1.890444     -1.838801
H       1.177127      1.359294     -0.369074
H       2.821288     -0.439250      0.310765
H       1.544571     -1.235950      1.245853
H       2.172567      0.335426      1.754742
H       1.398510     -0.904852     -1.670702
