14
Extracted from Q-Chem output
C      -1.881076      0.508677     -0.382068
C      -0.569734      0.264355      0.315470
C      -0.278668     -1.028417      0.981213
N       0.457995     -0.415259     -0.462932
C       1.841963     -0.004940     -0.314474
H      -2.640131      0.799757      0.346535
H      -1.791164      1.302513     -1.127183
H      -2.218198     -0.403736     -0.874230
H      -0.152202      1.152628      0.788002
H       0.173415     -1.495443     -0.258130
H       0.512342     -0.897450      1.728739
H       2.034855      0.449977      0.662678
H       2.494164     -0.871089     -0.429671
H       2.085425      0.714926     -1.098603
