12
Extracted from Q-Chem output
O      -2.165987     -0.259331     -0.131098
C      -1.147432     -0.791153      0.438446
C       0.159457     -0.593993     -0.231952
C      -0.132613      1.428464     -0.486596
C       0.915953      2.028013     -0.538914
C       1.373946     -0.929429      0.452164
N       2.332954     -1.195571      1.024697
H      -1.214419      1.106116     -0.464109
H      -1.063835     -0.790290      1.540108
H      -0.938341     -1.908656      0.144555
H       0.167049     -0.721354     -1.309108
H       1.854336      2.534207     -0.574965
