14
Extracted from Q-Chem output
O       2.053656     -0.633370     -1.148033
C       1.162131      0.233053     -0.913303
C       0.570092      0.396398      0.450778
C      -0.433015     -0.373198     -1.027050
N      -1.064074     -0.381408      0.396650
C      -0.732198      1.056790      0.737949
C       0.159152     -0.830739      1.178718
H       1.144951      1.202396     -1.451526
H      -1.062567      0.229531     -1.675067
H      -0.287580     -1.391228     -1.371384
H      -1.112643      1.800523      0.043705
H      -0.944515      1.281216      1.778191
H      -0.011021     -0.744881      2.246176
H       0.609017     -1.763808      0.855307
