13
Extracted from Q-Chem output
C       1.196576     -0.101607      0.505781
C       0.404599      0.988288      1.126366
C       0.472288     -0.735235     -0.709400
C      -0.838625      0.001410     -0.727960
N      -1.612669     -0.096439      0.475177
C      -0.783678      1.119970      0.293005
H       2.060391      0.490392      0.159708
H       1.630168     -0.792484      1.231975
H       1.024474     -0.594250     -1.639912
H       0.322086     -1.810158     -0.581720
H      -1.413800      0.118644     -1.638829
H      -1.205069     -0.735243      1.153383
H      -1.354633      2.036162      0.223095
