12
Extracted from Q-Chem output
C      -1.651163     -0.177850     -0.006069
C      -0.184854      0.090512     -0.062682
C       0.464080      1.264894     -0.085453
O       1.809103      1.111602     -0.116655
C       2.156687     -0.218413     -0.212207
C       0.893528     -0.879640     -0.113316
H      -2.219477      0.751973      0.011835
H      -1.913469     -0.749852      0.886432
H      -1.979783     -0.755352     -0.872612
H       0.100412      2.281918     -0.073561
H       1.700529     -0.820603      0.884250
H       0.791376     -1.950175     -0.239367
