12
Extracted from Q-Chem output
C       2.194853      0.586886     -0.247700
C       1.090967      0.254007      0.129955
C       0.252583     -1.259004      0.442666
C      -0.298603      0.035059      0.562844
C      -1.534424      0.598519     -0.544484
O      -2.617660      0.232612     -0.010755
H       3.158636      0.884925     -0.590730
H       0.503883     -1.878131      1.299740
H       0.327393     -1.719496     -0.535723
H      -0.512658      0.385203      1.568381
H      -1.190550      0.108283     -1.485614
H      -1.277762      1.680176     -0.576692
