16
Extracted from Q-Chem output
C      -1.587367      1.071251     -0.482876
C       0.108402      0.555563      0.379892
C       0.730706     -0.427567     -0.605603
C       2.071068     -0.746655     -0.120463
C       3.163739     -0.990381      0.304029
C      -0.344299     -0.150490      1.596205
N      -1.553749     -0.230258      0.799582
H      -0.998241      1.094373     -1.394797
H      -1.683612      2.071676     -0.074640
H      -2.563549      0.670781     -0.768006
H       0.809461      0.021172     -1.600635
H       0.153788     -1.355932     -0.702557
H       4.137999     -1.210331      0.671252
H       0.075048     -1.140809      1.768559
H      -0.398476      0.440312      2.509399
H      -2.254373      0.322294      1.284869
