14
Extracted from Q-Chem output
C      -1.684191      0.218870      0.018046
C      -0.352688      0.064921      0.734286
C       0.604481     -0.878804      0.021715
O       0.909277     -0.344979     -1.287181
C       2.046601      0.187883     -1.578143
O       0.271459      1.311204      0.966072
H      -2.188174     -0.743836     -0.084420
H      -2.331094      0.888650      0.584379
H      -1.542609      0.632226     -0.983078
H      -0.520596     -0.362219      1.727584
H       1.540461     -0.968297      0.578988
H       0.154513     -1.860103     -0.134516
H       2.705140      0.066850     -0.675480
H       0.265192      1.817729      0.149360
