14
Extracted from Q-Chem output
C      -1.665551      0.195192      0.096772
C      -0.268739      0.004070      0.661475
C       0.541718     -1.056218     -0.106286
O       0.941262     -0.335546     -1.270671
C       1.621855      0.753899     -0.920089
O       0.493070      1.191351      0.627960
H      -2.270125     -0.702518      0.242696
H      -2.158654      1.028381      0.597387
H      -1.619289      0.411880     -0.972106
H      -0.316218     -0.287252      1.715910
H       1.422229     -1.365463      0.467592
H      -0.039984     -1.922814     -0.417505
H       2.476710      0.508585     -0.271510
H       0.752545      1.608716     -0.426343
