16
smiles: [C:1](=[O:2])([H:8])[H:10].[C:3]([C:4]([H:11])([H:12])[H:13])([C:5]([H:14])([H:15])[H:16])=[C:6]=[N:7][H:9]
C        2.63906000       0.97956200       0.94073600
O        2.97555400      -0.14790500       0.72764600
C       -0.87618600      -0.25131900      -0.29409000
C       -2.34697600      -0.07927800      -0.02375700
C       -0.25996800      -1.60514900      -0.06281200
C       -0.15484800       0.74803200      -0.72610700
N        0.54301600       1.71208500      -1.01753400
H        3.18855100       1.84448700       0.52181500
H        0.64149900       1.87278000      -2.01767800
H        1.75892100       1.21952300       1.56785300
H       -2.93900300      -0.74985700      -0.65321300
H       -2.67662000       0.94202900      -0.21149500
H       -2.57380500      -0.32298900       1.01813100
H       -0.39670300      -1.91212500       0.97808200
H        0.80789200      -1.60801800      -0.27874400
H       -0.73805000      -2.36123300      -0.69223200
