16
Extracted from Q-Chem output
C       1.951641      0.850082     -0.446245
O       1.197330     -0.167516     -0.594499
C      -0.664603     -0.132816      0.185572
C      -1.460314     -0.324541     -1.071155
C      -0.559410     -1.304222      1.115861
C      -0.503126      1.122496      0.682534
N       0.160112      2.100949      0.849889
H       2.126934      1.495914     -1.318364
H       1.221296      1.787484      0.273220
H       2.779472      0.779186      0.273302
H      -1.026704     -1.153764     -1.630492
H      -1.447893      0.567479     -1.694529
H      -2.496990     -0.574828     -0.832183
H      -1.549435     -1.602904      1.469135
H       0.069328     -1.078479      1.975021
H      -0.122846     -2.141087      0.570249
