14
smiles: [C-:1]1([H:8])[C:2]([H:9])([H:10])[C@@:3]12[C:4]([H:11])=[O+:5][C:6]2([H:13])[H:14].[H:7][H:12]
C       -1.07203200       0.96995100      -0.38185300
C       -1.43596800      -0.13347100       0.45402900
C        0.13600400       0.14174100       0.10643700
C        0.96722000      -0.88639700      -0.26971900
O        2.00797800      -0.64309700       0.54162700
C        1.23920900       0.47501600       1.10206400
H       -0.64905100      -0.08289000      -2.52764000
H       -1.04994200       1.89382500       0.20755700
H       -1.70913800      -0.06101800       1.51140100
H       -1.72049100      -1.08007300       0.00248400
H        0.93512600      -1.77386500      -0.89000300
H       -0.41327800      -0.59948900      -3.00917400
H        1.01447600       0.27545600       2.14867300
H        1.77564000       1.41279000       0.96946700
