10
Extracted from Q-Chem output
O      -2.657589      0.100123     -0.679142
C      -1.530183     -0.660665     -0.715978
C      -0.482707     -0.530284      0.046947
C       0.570803     -0.415314      0.815740
C       1.696584      0.410362      0.502481
C       2.652271      1.094888      0.268691
H      -2.560629      0.776314     -0.003216
H      -1.582043     -1.427481     -1.479737
H       0.620843     -0.966257      1.752190
H       3.495880      1.706337      0.051505
