10
Extracted from Q-Chem output
O      -2.151572     -0.183929      0.503270
C      -1.188700     -0.662004     -0.317902
C      -0.606003      0.247443     -1.367207
C       0.340279      0.028926     -0.476893
C       1.510711      0.480214      0.161249
C       2.513422      0.848548      0.704577
H      -2.302209      0.740492      0.269926
H      -1.296616     -1.721581     -0.535063
H      -0.075755     -0.901047      0.377718
H       3.404158      1.190682      1.176653
