17
Extracted from Q-Chem output
C       2.205514      0.352601     -0.415443
O       0.955215     -0.181597     -0.774775
C       0.432719     -1.034764      0.194912
C      -0.333887     -0.504223      1.353626
C      -1.028089     -1.083289      0.361463
C      -1.947885      0.498914     -0.859002
O      -1.679954      1.627152     -0.419816
H       2.952298     -0.437376     -0.264203
H       2.134239      0.947733      0.502822
H       2.529100      0.996142     -1.231711
H       1.054118     -1.922705      0.340527
H      -0.291487     -0.473259      2.430238
H      -0.311678      1.097982      1.271002
H      -1.823439     -1.801059      0.260973
H      -1.401055      0.095802     -1.718696
H      -2.921874      0.047174     -0.627254
H      -0.759034      1.540006      0.730013
