12
Extracted from Q-Chem output
C      -2.123734      0.224648     -0.594557
C      -0.921424     -0.666970     -0.682860
C       0.229853     -0.423267     -0.107027
C       1.342255     -0.186041      0.449879
C       2.503627      0.041454      1.018576
O       2.816079      1.115900      1.783105
H      -1.917926      1.104924      0.013362
H      -2.434059      0.556850     -1.588504
H      -2.970263     -0.307595     -0.153272
H      -1.010518     -1.579430     -1.266062
H       2.046350      1.688829      1.845089
H       3.341187     -0.638105      0.918627
