16
Extracted from Q-Chem output
C       0.016616      1.925043     -0.810262
C       0.124152      0.826281      0.213298
C      -1.278806     -1.997871     -0.077732
C       0.540102     -0.557425     -0.184543
C       1.470723      0.278659      0.618516
O      -0.022549     -1.654240      0.453634
H       0.178867      2.906276     -0.358445
H      -0.967088      1.930824     -1.285333
H       0.764254      1.797785     -1.596852
H      -0.606279      0.857549      1.015117
H      -2.002455     -1.183227      0.046771
H      -1.631964     -2.875512      0.462024
H      -1.208181     -2.241488     -1.145547
H       0.775422     -0.725638     -1.235944
H       2.355096      0.672926      0.133595
H       1.604066     -0.009666      1.652624
