10
Extracted from Q-Chem output
O      -1.508586      2.083864      0.175764
C      -1.034277      1.101445     -0.144413
C      -0.919884     -0.981880     -0.053690
N       0.257279     -1.231954     -0.565072
C       1.218941     -0.372899     -0.198616
N       0.915798      0.729936      0.415625
H      -1.030845     -0.765844      1.013483
H      -1.798779     -1.375855     -0.557180
H       2.226397     -0.597748     -0.547959
H       1.678519      1.395567      0.460573
