16
smiles: [C:2](=[O:3])=[C:4]([H:10])[H:11].[N:1]([C:5]([C:6]([O:7][H:16])([H:14])[H:15])([H:12])[H:13])([H:8])[H:9]
N        0.37223800       0.13235200       0.17935100
C        2.15470000      -2.18639100       0.85829800
O        3.00809200      -1.42769900       1.03370600
C        1.18897100      -3.04513700       0.65933700
C       -0.84202100       0.38976100      -0.57539800
C       -1.19723400       1.85450100      -0.75883100
O       -1.39763300       2.41667800       0.52668500
H        0.31562500       0.59727100       1.07648700
H        1.17786500       0.51412400      -0.29982900
H        0.21273400      -2.68568400       0.37452500
H        1.38559600      -4.09855300       0.78208100
H       -0.75502200      -0.07714500      -1.56043100
H       -1.67367100      -0.10426800      -0.06528600
H       -0.38180500       2.37051400      -1.28504100
H       -2.10577200       1.94017100      -1.36993100
H       -1.52895900       3.36104400       0.44172700
