11
Extracted from Q-Chem output
O       1.066936      0.642212      1.649021
C       0.234186      0.069080      0.783772
C       0.770209     -0.653232     -0.398709
C      -0.315824      0.247773     -0.913685
N      -1.603437     -0.188633     -0.597187
C      -1.093121      0.510165      0.631568
H       1.795467     -0.386194     -0.635999
H       0.570150     -1.716540     -0.507971
H      -0.142856      1.143967     -1.491701
H      -1.612307     -1.199684     -0.488847
H       0.536466      1.290943      2.136741
