13
Extracted from Q-Chem output
N      -1.477257      0.588141     -0.357684
C      -0.187410      0.385038      0.053612
C       0.240994     -1.044350     -0.024917
O      -0.728642     -1.893808      0.418055
N       1.344410     -1.467229     -0.455029
C       1.746060      1.493692     -0.019923
C       0.552493      1.431677      0.617394
H      -1.833056      0.047318     -1.129753
H      -1.818605      1.533627     -0.321299
H      -1.454064     -1.395171      0.807942
H       1.401239     -2.476545     -0.332298
H       2.178671      0.547042     -0.360856
H       0.051891      2.273758      1.097682
