12
Extracted from Q-Chem output
C      -0.146035      1.212865      0.325579
C       0.120511     -0.111329      0.743154
C      -1.396401     -0.126295     -0.353768
O      -2.464528     -0.276796      0.205004
C       1.252056     -0.807988      0.221178
C       2.181739     -1.399250     -0.254513
H       0.546944      1.714775     -0.342677
H      -1.142777      1.012870     -0.789513
H      -0.784200      1.842786      0.932822
H      -0.299942     -0.462041      1.675461
H      -0.894525     -0.704102     -1.133315
H       3.014535     -1.922874     -0.660494
