11
Extracted from Q-Chem output
O      -0.704730      1.426149     -0.465891
C      -1.048222      0.243423      0.182822
C      -0.195052     -0.999712     -0.300010
C       1.014271     -0.931467      0.504438
C       1.909949      0.090128      0.200437
N       2.701120      0.934117      0.080858
H       0.074798      1.821316     -0.067661
H      -2.074387      0.007143     -0.097040
H      -0.767372     -1.905877     -0.104998
H      -0.058121     -0.845406     -1.374335
H      -1.012246      0.334400      1.272847
