11
Extracted from Q-Chem output
O      -0.819426      1.397799     -0.516753
C      -0.911321      0.208033      0.179196
C      -0.239571     -1.026512     -0.461881
C       0.649634     -0.794250      0.682469
C       1.678342      0.159868      0.434205
N       2.538561      0.919713      0.298704
H       0.092711      1.710718     -0.530664
H      -1.941123     -0.004278      0.459341
H      -0.829185     -1.936640     -0.418668
H       0.099480     -0.787791     -1.467248
H      -0.439934      0.276823      1.235020
