10
Extracted from Q-Chem output
O       1.470915      0.732347     -0.002632
C       1.336568     -0.580076     -0.418210
C       0.989032      1.060495      1.243889
N       0.265042     -1.154301     -0.724801
C      -0.931230     -0.459136     -0.584241
C      -1.181470      0.454446      0.342737
O      -0.295929      0.852263      1.341123
H       2.293028     -1.088726     -0.479813
H      -1.729190     -0.748212     -1.256217
H      -2.148628      0.914287      0.481635
