10
Extracted from Q-Chem output
O       1.611198      0.815334     -0.628395
C       1.467433     -0.402709     -0.510678
C       0.727977      0.429041      1.528551
N       0.300812     -1.072891     -0.367252
C      -0.881397     -0.439729     -0.471082
C      -1.308199      0.550480      0.321385
O      -0.359128      0.884054      1.342051
H       2.339971     -1.070249     -0.492546
H      -1.606333     -0.811737     -1.193071
H      -2.224197      1.101793      0.414507
