17
Extracted from Q-Chem output
C       2.432627     -0.776348     -0.066077
C       0.940199     -0.633564     -0.342629
C       0.292369      0.228890      0.694214
C      -1.639616      1.300154      1.598954
N      -0.992920      0.557318      0.696049
C      -1.803926      0.058084     -0.419413
H       2.926740      0.197486     -0.078654
H       2.605854     -1.225674      0.914292
H       2.913044     -1.407692     -0.814679
H       0.812664     -0.223207     -1.353493
H       0.496021     -1.638702     -0.374670
H       0.874847      0.609564      1.522192
H      -1.086120      1.696605      2.434393
H      -2.685395      1.499350      1.455519
H      -1.738032     -1.027553     -0.462256
H      -1.433172      0.474901     -1.354334
H      -2.836734      0.353694     -0.269504
