17
Extracted from Q-Chem output
C       2.348798     -0.954577      0.111984
C       1.125784     -0.172857     -0.349340
C       0.174510      0.135660      0.764370
C      -1.181673      1.614617      1.116618
N      -1.133846      0.380835      0.549102
C      -2.124172     -0.330325     -0.221950
H       2.888177     -0.409700      0.889948
H       2.058419     -1.922300      0.526543
H       3.042466     -1.134383     -0.710551
H       1.444048      0.762336     -0.830252
H       0.588238     -0.727510     -1.128051
H       0.508658      0.067801      1.791511
H      -0.598784      2.417816      0.688299
H      -1.933493      1.847774      1.870016
H      -1.866517     -1.389693     -0.264670
H      -2.217705      0.062024     -1.238808
H      -3.092446     -0.225206      0.274196
