12
smiles: [H:8][H:12].[O:1]1[C:2]([H:7])=[C:3]([H:9])[C:4]([H:10])([H:11])[C:5]1=[O:6]
O       -0.49781300      -0.63326000      -1.26513700
C       -1.30768300      -0.61181700      -0.14892900
C       -0.95561400       0.28562200       0.75636600
C        0.25059400       1.00064200       0.23773600
C        0.47766700       0.32236900      -1.10210200
O        1.31487000       0.51548600      -1.92173500
H       -2.11624700      -1.32568100      -0.16670900
H        1.17892100      -1.90642600       0.94287700
H       -1.45276500       0.46456900       1.69570500
H        0.10257000       2.07090800       0.07721700
H        1.14356700       0.88668300       0.85598700
H        1.82517500      -1.90953100       0.57308100
