12
Extracted from Q-Chem output
O      -0.605265     -0.686980     -1.253075
C      -1.229858     -0.723808     -0.147708
C      -0.623333     -0.021400      0.889148
C       0.351907      0.924694      0.267521
C       0.916951      0.049526     -0.850459
O       1.658922      0.232127     -1.745918
H      -2.063853     -1.416364     -0.038423
H       0.461073     -1.037918      0.728126
H      -1.032423      0.055791      1.884167
H      -0.121729      1.786588     -0.206112
H       1.152738      1.249080      0.930375
H       1.126134     -1.098059      0.006022
