14
Extracted from Q-Chem output
O       1.191396      1.007559      1.505157
C       1.387190      1.256690      0.240493
C       0.390421      0.953369     -0.786694
C      -0.016788     -0.450186     -1.091874
C      -0.206162     -1.303336      0.150390
C      -1.235844     -0.242966      0.582950
N      -1.023560      0.553595     -0.671510
H       2.202798      1.474085      1.163977
H       0.535793      1.556068     -1.675766
H       0.054362     -0.814343     -2.110016
H       0.666349     -1.446545      0.786248
H      -0.651442     -2.270972     -0.072345
H      -1.055772      0.301879      1.504768
H      -2.258551     -0.615995      0.570949
