17
smiles: [C:1]([C:2]1([O:3][H:11])[C:4]([H:13])=[C:5]([H:14])[C:6]([H:15])=[C:7]1[H:16])([H:8])([H:9])[H:10].[H:12][H:17]
C       -1.65581100      -0.34239000      -0.12704700
C       -0.43932400      -0.09641800       0.75712700
O       -0.78343100      -0.58470600       2.04758400
C       -0.03936600       1.36818600       0.76472800
C        1.18139500       1.50903600       0.25197400
C        1.71182900       0.17599200      -0.11292800
C        0.80467400      -0.75175600       0.18527300
H       -1.87965400      -1.40962500      -0.15719600
H       -1.47247800       0.01203500      -1.14192000
H       -2.52163600       0.17862200       0.28359900
H       -0.02971500      -0.44443300       2.62608000
H        0.33896900      -1.10411200      -2.78811600
H       -0.69434900       2.14681000       1.13153500
H        1.71722600       2.43880500       0.11455000
H        2.68479300       0.00557900      -0.55433900
H        0.88513300      -1.82146900       0.04622700
H        0.16737200      -1.29245900      -3.48777200
