17
Extracted from Q-Chem output
C      -1.827076     -0.680086     -0.136128
C      -0.489805     -0.174664      0.362254
O      -0.598438     -0.201883      1.778437
C      -0.027277      1.209020     -0.126139
C       1.353182      1.244718      0.012264
C       1.835492     -0.072568      0.020464
C       0.758741     -0.936767     -0.110823
H      -2.004483     -1.679216      0.264486
H      -1.871862     -0.723338     -1.222485
H      -2.622502     -0.028520      0.227102
H       0.234362      0.112754      2.142419
H      -0.030429      0.471682     -1.533806
H      -0.675226      2.076873     -0.099351
H       1.966114      2.133104     -0.046647
H       2.877075     -0.358589     -0.030888
H       0.822543     -2.018192     -0.072407
H       0.280244     -0.382509     -1.534267
