12
Extracted from Q-Chem output
O       2.267493     -0.370501      1.568865
C       1.397445      0.203873      0.708548
C       0.101435     -0.058272      0.594735
C      -0.781962      0.630586     -0.403559
C      -1.270213     -0.315704     -1.474611
O      -1.273877     -0.069837     -2.647983
H       1.813228     -1.031742      2.097884
H       1.893492      0.946078      0.092562
H      -1.643398     -1.294960     -1.103383
H      -0.351564     -0.810618      1.237050
H      -0.275143      1.466036     -0.888425
H      -1.674150      1.031765      0.093786
