13
Extracted from Q-Chem output
C      -1.966017     -1.104043     -0.034962
C      -0.893648     -0.079803     -0.128368
C       2.026898      1.299264     -0.304415
C       1.218158      0.761091      0.784353
O       2.543223      0.287920      0.557443
N       0.248672     -0.204781      0.468628
H      -2.376428     -1.324709     -1.022134
H      -1.592088     -2.036008      0.392893
H      -2.795272     -0.754020      0.588551
H      -1.074273      0.867014     -0.623201
H       1.858358      0.975024     -1.331837
H       2.478239      2.281748     -0.200673
H       0.420579     -1.087359      0.940642
