16
Extracted from Q-Chem output
C       2.215105      1.847787      0.270051
C       2.212244      0.689649     -0.378683
C      -1.313439     -1.347125      0.383028
C      -2.626677     -1.490737      0.463075
C       0.096521      0.026912     -1.124422
C      -0.604675     -0.034861      0.210609
N       1.301820      0.311435     -1.367666
H       3.018159      2.093234      0.951234
H       1.441623      2.589082      0.107159
H       3.023349     -0.021326     -0.244924
H      -0.678457     -2.228701      0.428779
H      -3.083935     -2.465647      0.579393
H      -3.293486     -0.635583      0.420074
H      -0.525746     -0.231033     -1.984904
H       0.116777      0.128252      1.013308
H      -1.333888      0.780320      0.253984
