16
Extracted from Q-Chem output
C       1.861396      0.844729      0.287760
C       1.089306     -0.346668      0.169247
C      -0.414206     -0.412948      0.802155
C      -1.092335     -1.498243      0.128592
C      -0.430995      0.396642     -1.254804
C      -1.021231      0.785362      0.074439
N       0.809454     -0.069486     -1.223140
H       2.936419      0.822122      0.414097
H       1.387655      1.813977      0.256768
H       1.647669     -1.272113      0.301563
H      -0.328377     -0.447728      1.889076
H      -0.762684     -2.527670      0.230689
H      -2.041020     -1.341756     -0.361581
H      -0.845710      0.710921     -2.208808
H      -0.699374      1.774755      0.410941
H      -2.110849      0.765144      0.083301
