14
Extracted from Q-Chem output
O       0.491786      1.612758     -0.934865
C      -1.168939     -0.138064      1.413277
C      -1.239602     -0.601348     -0.022969
C       0.322242     -0.575368      0.020689
C       1.035412      0.307672     -0.979567
C       0.158876     -0.081791      1.443632
H       0.921079      2.148965     -1.601547
H      -1.939146      0.071682      2.145063
H      -1.668878      0.121740     -0.718307
H      -1.685950     -1.583577     -0.195931
H       0.759933     -1.576898     -0.043518
H       0.923410     -0.127763     -1.982228
H       2.108132      0.326102     -0.742396
H       0.879008      0.205366      2.200037
