14
Extracted from Q-Chem output
O      -0.198808      1.474316     -0.447671
C      -0.798962      0.524980      0.669145
C      -1.130523     -0.704293     -0.182286
C       0.384330     -1.003571     -0.032986
C       1.058178     -0.007661     -0.887680
C       0.319381     -0.176403      1.249016
H       0.391774      2.060807      0.040390
H      -1.537612      1.127886      1.192798
H      -1.514786     -0.540097     -1.191728
H      -1.751780     -1.411848      0.359338
H       0.773016     -2.024111     -0.069497
H       0.769297      0.222689     -1.907241
H       2.078502      0.254498     -0.628809
H       1.128877      0.230320      1.846774
