16
smiles: [C:1]([C:2]([C:6](=[O:5])[H:16])([H:10])[H:15])([H:7])([H:8])[H:9].[C:3](=[C:4]([H:13])[H:14])([H:11])[H:12]
C        1.76493400       0.40389900       0.45460200
C        0.57848300       0.40163600       1.41574100
C       -1.05506200      -0.35208800      -2.16379500
C       -1.86308500       0.41804600      -1.45566000
O       -1.17798400      -1.23755000       1.42919500
C       -0.01593700      -0.97133000       1.56389500
H        1.45199000       0.14112400      -0.55737600
H        2.22984600       1.38902100       0.41665400
H        2.52955500      -0.31158700       0.76549300
H       -0.20662200       1.08954700       1.10003700
H       -0.69500800      -0.05162800      -3.14119400
H       -0.71861200      -1.31453100      -1.79525700
H       -2.22309700       0.11765800      -0.47822600
H       -2.19941900       1.38051600      -1.82423700
H        0.91439600       0.71097100       2.41247600
H        0.71587300      -1.77160400       1.81474000
