16
Extracted from Q-Chem output
C       1.944461      0.150856      0.187620
C       0.499091      0.429882      0.456571
C      -0.685315      0.035192     -1.438372
C      -1.911483     -0.171076     -0.894877
O      -1.592892     -0.222426      1.336936
C      -0.335844     -0.421393      1.282648
H       2.157657      0.354926     -0.862549
H       2.604157      0.792015      0.775036
H       2.189776     -0.892971      0.387482
H       0.164437      1.460444      0.400716
H      -0.410512      1.008056     -1.829554
H      -0.084538     -0.803470     -1.771942
H      -2.311828     -1.165170     -0.759715
H      -2.606844      0.641805     -0.741773
H       0.312390      0.262507      2.036801
H       0.078117     -1.438416      1.418972
