16
Extracted from Q-Chem output
C       1.807422     -0.353037     -0.051661
C       0.320095     -0.220282     -0.107477
C      -0.520385      0.670487      0.942617
C      -1.328334      1.166358     -0.251795
N      -0.408805      0.492760     -1.216868
C      -0.551890     -0.936245     -1.075894
C      -0.804046     -0.573878      1.572199
H       2.271086      0.548254      0.351603
H       2.190863     -0.509730     -1.061220
H       2.102917     -1.205324      0.561494
H       0.153146      1.419543      1.364081
H      -2.354673      0.801458     -0.302141
H      -1.300318      2.243604     -0.402515
H      -0.016371     -1.486481     -1.841505
H      -1.490824     -1.361599     -0.750633
H       0.057693     -0.771089      2.237008
