14
smiles: [H:8][H:11].[O:1]1[C:2]([H:9])([H:10])[C:3]1=[C:4]=[C:5]1[C:6]([H:12])([H:13])[N:7]1[H:14]
O        1.95164700      -0.57563300       1.62074800
C        2.50557400      -0.40379900       0.28503000
C        1.10174000      -0.47572200       0.56566400
C       -0.15927900      -0.48317600       0.30827700
C       -1.41884300      -0.46947300       0.03289700
C       -2.66745700       0.20884200      -0.26072500
N       -2.51899700      -1.26765100      -0.28644300
H        1.82854700       2.01462800       2.07997500
H        2.97580400       0.55914700       0.11268700
H        3.02519100      -1.27404600      -0.10296100
H        1.93661000       2.73387700       1.92033100
H       -2.73675900       0.74502700      -1.20201600
H       -3.29697000       0.58032500       0.53912200
H       -2.47940500      -1.66913900      -1.21595000
