14
Extracted from Q-Chem output
O       2.168166      0.381702      1.176822
C       2.629685     -0.369286      0.127849
C       1.283330     -0.635990     -0.368950
C       0.057557     -0.614372     -0.441056
C      -1.026378     -0.083351      0.191425
C      -2.261912      0.661797     -0.042081
N      -2.139143     -0.514084      0.833658
H       0.707221      0.756610      1.396961
H       3.242943      0.176560     -0.602795
H       3.154807     -1.288786      0.420966
H      -0.126142      0.863518      1.409257
H      -2.716900      0.552282     -1.021339
H      -2.453866      1.590218      0.479586
H      -2.525467     -1.413488      0.582528
