16
smiles: [C:1]([C:2]1=[N:3][C:4](=[O:5])[C@:6]1([C:7]([H:14])([H:15])[H:16])[H:13])([H:8])([H:9])[H:10].[H:11][H:12]
C        1.90660600      -0.46753900      -0.13476100
C        0.89950900       0.61042900      -0.19193900
N        1.07169300       1.84510600      -0.53601800
C       -0.34089400       2.07942000      -0.34685400
O       -1.00903600       3.04183500      -0.52862600
C       -0.58653300       0.62359800       0.10617700
C       -1.51836900      -0.23950800      -0.72302000
H        1.60507100      -1.28973700      -0.78865500
H        1.96172400      -0.87141200       0.87918300
H        2.88445600      -0.09997100      -0.43942500
H       -0.11970500      -2.13649100       2.37225100
H       -0.73514900      -2.41636100       2.06033400
H       -0.81313700       0.54645900       1.17336500
H       -1.29495400      -0.15276000      -1.78817700
H       -2.55307000       0.06911500      -0.57110400
H       -1.43729200      -1.29055200      -0.43840700
