19
Extracted from Q-Chem output
C       2.784471      0.320800      0.492639
C       1.510179     -0.297624      0.664832
C       0.252052      0.526240      0.628247
C      -1.037911     -0.241955      0.426114
C      -1.479908     -0.575814     -1.006457
O      -2.731221      0.106550     -0.827925
C      -2.339359      0.572751      0.467829
H       2.075127     -0.621755     -0.432166
H       2.850493      1.269509     -0.019371
H       3.676897     -0.156121      0.865766
H       1.482923     -1.156353      1.328229
H       1.135903     -1.237846     -0.574287
H       0.354400      1.308937     -0.128670
H       0.235259      1.040162      1.596902
H      -1.069497     -1.113111      1.083227
H      -1.619584     -1.632818     -1.242027
H      -0.872569     -0.110291     -1.790218
H      -2.193223      1.659469      0.481277
H      -3.064285      0.300810      1.239289
