11
smiles: [C:3](=[O:4])([H:10])[H:11].[N:1]([C:2](=[C:5]=[O:6])[H:9])([H:7])[H:8]
N        2.57168000       0.08572100      -0.83316700
C        1.16675300      -0.04746000      -0.61369200
C       -2.74955700      -0.22102600       0.44372600
O       -1.99586700      -0.45424100      -0.45488100
C        0.60235100       0.28183700       0.52937900
O        0.12259000       0.57673500       1.54114000
H        3.13340000      -0.50203100      -0.23711100
H        2.90076200       1.03785700      -0.79236200
H        0.52299700      -0.42816000      -1.39669100
H       -2.39739200       0.18158900       1.41287000
H       -3.83917500      -0.39510200       0.35403600
