11
Extracted from Q-Chem output
N       1.878062     -0.261470     -0.085272
C       0.515137     -0.079359     -0.346381
C      -1.679732     -0.556636      0.199210
O      -1.843228      0.511752     -0.428037
C      -0.117324      1.064307      0.117517
O      -0.122556      1.962199      0.859740
H       2.216410      0.213858      0.735614
H       2.495971     -0.124013     -0.870785
H       0.116213     -0.578096     -1.211856
H      -1.865127     -1.523534     -0.285245
H      -1.573202     -0.571557      1.290279
