16
Extracted from Q-Chem output
C      -2.174115      0.400861      0.318029
C      -1.054293     -0.603953      0.083793
C       0.126501     -0.043281     -0.673233
C       1.356220     -0.675418     -0.678943
C       2.496732      0.377454      0.609190
O       3.630337      0.348183      0.731093
H      -3.016239     -0.062057      0.834826
H      -1.830142      1.243458      0.921283
H      -2.546689      0.799740     -0.628625
H      -0.703870     -1.006614      1.039646
H      -1.451277     -1.459318     -0.474344
H      -0.111975      0.613954     -1.506187
H       0.448990      1.180818      0.284634
H       2.026681     -0.538840     -1.520218
H       1.469561     -1.621836     -0.158976
H       1.143205      1.328719      0.779887
