11
Extracted from Q-Chem output
O       1.839608     -1.288009     -0.406018
C       1.644960     -0.369164      0.339865
C       0.425020      0.513671      0.278828
N      -0.529927      0.076913     -0.700660
C      -2.184260     -0.255202     -0.289210
O      -2.440213     -0.465746      0.827873
H       2.379370     -0.104790      1.125839
H      -0.034686      0.514316      1.277304
H       0.778223      1.537451      0.098336
H      -0.162610     -0.609145     -1.355670
H      -1.715489      0.449703     -1.196489
