11
Extracted from Q-Chem output
N       2.546367      0.353940     -0.066043
C       1.338536      0.302682     -0.367294
C      -0.427246     -2.566910      0.615530
N      -0.904111     -1.536356      0.343890
C      -1.537035     -0.351272      0.043880
C      -0.933524      0.832614      0.002127
O       0.376987      1.089145      0.225891
H       2.720138      1.005000      0.697315
H       0.958647     -0.340419     -1.158530
H      -2.599366     -0.418315     -0.143481
H      -1.516210      1.726054     -0.182522
