11
Extracted from Q-Chem output
N       2.466796      0.279261      0.022261
C       1.243986      0.023969      0.012641
C       0.129503     -1.872102     -0.006404
N      -1.038046     -1.588742     -0.011244
C      -1.668307     -0.343138     -0.006894
C      -1.016658      0.818429      0.004209
O       0.309914      1.054564      0.013492
H       2.670217      1.281919      0.030388
H       1.216720     -1.605249      0.001509
H      -2.746797     -0.355536     -0.013225
H      -1.573800      1.747412      0.006720
