13
Extracted from Q-Chem output
O      -0.400421      1.319031      0.100016
C      -0.999698     -0.044222      0.319341
C      -1.400481     -0.505025     -1.079354
C      -0.091710     -0.929600     -0.563623
O       1.050916     -0.171422     -1.032519
C       1.507757      0.553267     -0.073598
O       1.567624      0.159106      1.156309
H      -0.583578      1.779758      0.920808
H       0.722417     -0.348375      1.326538
H      -2.177941     -1.252964     -1.180653
H      -1.381937      0.243706     -1.863908
H       0.182725     -1.945540     -0.309592
H       2.172594      1.361369     -0.358348
