13
smiles: [C:1]([N+:2]#[C-:3])([H:7])([H:8])[H:9].[C:4]1([H:10])([H:11])[C:5]([H:12])([H:13])[O:6]1
C        2.16732200       0.24123700       0.85141200
N        1.49371100      -0.99210000       1.03406200
C        0.94139900      -2.00447700       1.18015400
C       -1.49637500      -0.09636100      -0.77559300
C       -1.87662700       0.28458200       0.57987800
O       -0.85343200       0.97571800      -0.11192500
H        1.46390000       0.99357400       0.49704300
H        2.96305600       0.11787100       0.11799900
H        2.59671100       0.56928800       1.79713500
H       -0.88395900      -0.97960900      -0.93193000
H       -2.13208000       0.18760700      -1.60926500
H       -2.79094300       0.84839200       0.74054800
H       -1.54417800      -0.31945200       1.41916700
