16
Extracted from Q-Chem output
C      -2.102874      0.004957     -0.819102
C      -0.613754      0.286252     -0.748732
O      -0.366154      1.544413     -0.072848
C       0.132358     -0.792745     -0.024883
C       1.559276     -0.663107      0.138695
O       2.076962     -1.839594      0.191313
N       2.288633      0.437854      0.161611
H      -2.519880     -0.070802      0.187254
H      -2.284538     -0.934785     -1.342231
H      -2.632827      0.799102     -1.352070
H      -0.216897      0.378239     -1.769285
H      -0.844589      2.237764     -0.533135
H      -0.314717     -1.051610      0.938264
H       0.938440     -2.088253     -0.158122
H       3.291596      0.392704      0.137876
H       1.798674      1.318426      0.195370
