11
Extracted from Q-Chem output
N      -1.564872     -0.344587      0.748195
C      -0.348837     -0.064006      0.168383
O       0.155975     -0.702791     -1.092274
N       0.030169      1.248768     -0.395690
C       1.109384      0.248467     -0.612483
N       0.988865     -0.217700      0.803456
H      -1.643467     -1.296514      1.072730
H      -2.333081     -0.093463      0.143508
H       0.286933      1.859516      0.380055
H       2.039017      0.418517     -1.146246
H       1.239301     -1.207334      0.843377
