20
smiles: [C:1]([C:2]([C:3]([N:4]=[C:5]([H:15])[H:16])([H:13])[H:14])([H:11])[H:12])([H:8])([H:9])[H:10].[C:6](=[C:7]([H:19])[H:20])([H:17])[H:18]
C        2.85844400      -0.04464100       0.11042100
C        1.34138700       0.08069000       0.09710000
C        0.78909400       0.26369500      -1.31074700
N       -0.65810500       0.30777400      -1.29451000
C       -1.22322100       1.33328900      -1.75044800
C       -2.28510900       0.01753500       2.03948900
C       -2.40213100      -1.09988000       1.34304300
H        3.33421900       0.84248400      -0.31490600
H        3.18899100      -0.90868800      -0.47124000
H        3.23523000      -0.16615800       1.12705400
H        0.88090200      -0.80650600       0.53862500
H        1.02943500       0.93057600       0.71150100
H        1.08314200      -0.59398800      -1.92441400
H        1.22197100       1.16572900      -1.77222500
H       -2.31032600       1.39414800      -1.74297500
H       -0.67297800       2.18845500      -2.16590400
H       -1.78411800       0.88987700       1.63564000
H       -2.68756000       0.10737000       3.04210200
H       -2.90315300      -1.97209500       1.74702200
H       -1.99964600      -1.18964000       0.34046300
