20
Extracted from Q-Chem output
C       3.232511      0.069033     -0.183444
C       1.876638     -0.617761     -0.268902
C       0.740441      0.344982     -0.574085
N      -0.522018     -0.337493     -0.657915
C      -1.589452      0.517458     -0.805141
C      -1.975262      0.487452      0.721603
C      -3.001781     -0.332498      1.239569
H       3.246846      0.824775      0.606777
H       3.483137      0.570966     -1.121779
H       4.028604     -0.646416      0.030193
H       1.889374     -1.389663     -1.043140
H       1.650903     -1.132304      0.669687
H       0.959471      0.883341     -1.514712
H       0.728021      1.137913      0.203139
H      -2.435160      0.112861     -1.366763
H      -1.389031      1.546945     -1.135787
H      -1.161041      0.752189      1.384263
H      -2.896683      1.177446      0.965883
H      -3.880939     -0.523382      0.636006
H      -2.946684     -0.796196      2.217137
