16
Extracted from Q-Chem output
C       1.101781     -1.103139     -0.319017
C       0.054102      0.507984      0.153334
C       0.738060      1.726881     -0.328499
N      -0.585273     -0.585147     -0.709463
C      -1.511284     -0.861278      0.415234
C      -0.766902      0.191933      1.265558
O      -0.871864      0.537093      2.426354
H       1.996163     -0.540962     -0.027145
H       1.270688     -1.533278     -1.308153
H       0.880168     -1.868617      0.414644
H       1.755296      1.546736     -0.701148
H       0.814318      2.415980      0.514074
H       0.179614      2.237446     -1.122023
H      -1.003531     -0.297192     -1.593701
H      -2.510200     -0.514892      0.145652
H      -1.548134     -1.900557      0.743200
