16
smiles: [N:1]([C:2](=[O:3])[C:4]1([H:11])[C:5]([H:12])([H:13])[C:6]1([H:14])[H:15])([H:8])[H:9].[O:7]([H:10])[H:16]
N        1.41387200      -0.79334900       1.94100500
C        0.79980900      -0.21790000       0.87408900
O        1.29380000       0.71309000       0.27037100
C       -0.51830600      -0.81156100       0.50223400
C       -1.55487200       0.12112200      -0.06709800
C       -0.86650000      -0.84325000      -0.96320000
O        0.40644200       2.19110000      -1.90651100
H        2.30544700      -0.43321100       2.22961000
H        1.01216900      -1.56641300       2.43471200
H        0.78623600       1.72904500      -1.15815800
H       -0.87237400      -1.63300600       1.11318700
H       -2.58592300      -0.06372900       0.20252400
H       -1.26420300       1.16047800      -0.13969700
H       -1.41291900      -1.70492400      -1.32203600
H       -0.11569400      -0.44814800      -1.63413000
H        1.02556600       2.89213600      -2.11383000
