16
Extracted from Q-Chem output
N       0.875004      0.121325      2.073429
C       1.282841     -0.633689      0.972238
O       2.382957     -1.166951      0.984743
C       0.352170     -0.770323     -0.123325
C      -1.147464     -0.584780      0.062940
C      -1.300574      0.668615     -0.682843
O       0.255564      1.158417     -1.889786
H       1.634026      0.324065      2.703099
H       0.253053      0.895736      1.919667
H       0.702132      0.465403     -1.269215
H       0.622088     -1.535879     -0.840858
H      -1.730898     -1.403128     -0.356955
H      -1.415737     -0.456798      1.115340
H      -1.929887      0.747547     -1.560388
H      -1.122543      1.603377     -0.169335
H       0.197918      0.750760     -2.763079
