14
Extracted from Q-Chem output
C      -2.149225      0.161757      0.351315
C      -0.724787     -0.135745      0.031693
C      -0.246773     -1.289484     -0.448615
O       1.144560     -1.255278     -0.677514
C       1.505342     -0.047956     -0.256230
N       2.645385      0.394608      0.198536
C       0.414668      0.803910      0.088468
H      -2.263779      0.421438      1.405519
H      -2.793608     -0.691982      0.137494
H      -2.508521      1.012311     -0.232917
H      -0.713226     -2.232167     -0.684522
H       1.693811      1.194194      0.750924
H       3.535501      0.077345     -0.163799
H       0.329088      1.733613     -0.470646
