12
smiles: [C:1]([C:2](=[C:3]=[O:4])[H:11])([H:7])([H:8])[H:9].[C:5](=[O:6])([H:10])[H:12]
C       -1.91463000      -0.31204200       1.04039200
C       -0.78741800       0.41681900       0.35616500
C       -0.77722300       0.68255300      -0.92416500
O       -0.77045500       0.91722000      -2.05949400
C        2.72030400      -0.24859700       0.05986900
O        2.53868100       0.61157900       0.87044600
H       -2.36353800       0.30487700       1.82116900
H       -2.70013600      -0.57531100       0.33241300
H       -1.55914200      -1.23531100       1.50188400
H        1.88032300      -0.77437000      -0.43356500
H        0.07872300       0.75463800       0.91066800
H        3.73783000      -0.56470000      -0.24065100
