12
Extracted from Q-Chem output
C      -1.681075     -0.048657      0.834893
C      -0.258518     -0.358158      0.777487
C       0.441557     -0.191098     -0.453306
O      -0.063129      0.266931     -1.521793
C       1.863465      0.527372     -0.008171
O       2.596220      0.202396      0.859765
H      -1.799858      0.984420      0.477681
H      -2.194537     -0.627512      0.056234
H      -2.144090     -0.188274      1.807435
H       0.968034     -1.209624     -0.479299
H       0.301020     -0.703598      1.641807
H       2.024547      1.342027     -0.737534
