16
Extracted from Q-Chem output
C      -2.300449      0.324764      0.869553
O      -1.254439     -0.431883      0.320058
C      -0.567087      0.254156     -0.684237
C       0.572438     -0.536481     -1.207313
N       1.607526     -0.815782      0.657139
C       2.465687      0.059665      0.274809
O       2.327607      0.561851     -0.868488
H      -1.928354      1.256447      1.314832
H      -3.058162      0.576931      0.115357
H      -2.765941     -0.278584      1.647209
H      -0.217183      1.236387     -0.342571
H      -1.238901      0.437135     -1.543217
H       0.920733     -0.217497     -2.177800
H       0.473271     -1.607831     -1.116818
H       1.662525     -1.206780      1.588714
H       3.300729      0.387502      0.904593
