13
Extracted from Q-Chem output
O      -1.730555     -0.724352      0.942042
C      -1.514872     -0.426688     -0.204837
C      -0.662075      0.757595     -0.602512
N       0.733635      0.367675     -0.744604
C       1.311991     -0.331235      0.396374
O       1.177945      0.416358      1.568099
H       0.323993      0.209487      1.959198
H      -1.870438     -1.084883     -1.025864
H       0.880169     -1.332714      0.548460
H      -0.744102      1.525377      0.168269
H      -1.004817      1.176903     -1.549763
H       0.902906     -0.142729     -1.600477
H       2.377989     -0.446809      0.193032
