16
smiles: [C:1]1([H:8])([H:10])[C:2](=[O:3])[C@@:7]2([H:16])[N:5]([C:4]1([H:12])[H:13])[C:6]2([H:14])[H:15].[H:9][H:11]
C        0.70007700      -0.27736500      -0.56827200
C        0.44370900       0.57978800       0.66771000
O        1.26122900       0.93875800       1.46919700
C       -0.52925000      -0.03597400      -1.45041100
N       -1.59919600       0.55085300      -0.61476100
C       -1.91413500      -0.24348600       0.54710600
C       -1.00822100       0.93016100       0.66842000
H        0.82412600      -1.31690800      -0.25631900
H        3.95950300      -1.01169800       1.05471900
H        1.63487500       0.03064700      -1.03324200
H        3.44421700      -0.50070200       1.22124700
H       -0.90767400      -0.93943000      -1.92981900
H       -0.30432500       0.68827900      -2.23387200
H       -1.48338300      -1.23643600       0.64016300
H       -2.92845500      -0.14966900       0.91430900
H       -1.32890000       1.84375300       1.15120600
