16
Extracted from Q-Chem output
C       1.077604     -0.901263     -0.116289
C       0.597754      0.416614      0.185596
O       1.515665      1.310699      0.284867
C      -0.391525      0.417804     -1.258153
N      -1.528811      0.779430     -0.417312
C      -1.808303     -0.323022      0.492579
C      -0.760430      0.648565      0.846152
H       0.530088     -1.810013      0.115104
H       2.439373     -0.581691      0.980991
H       1.796656     -0.965174     -0.923115
H       2.414004      0.289575      0.890602
H      -0.563521     -0.435392     -1.914871
H       0.022303      1.262958     -1.798260
H      -1.557275     -1.333038      0.185484
H      -2.764920     -0.233450      0.991318
H      -0.866597      1.377966      1.638225
