17
Extracted from Q-Chem output
C      -2.257100     -0.380242     -0.067182
C      -0.795991     -0.415110     -0.487646
O      -0.494763      0.639677     -1.383488
C       0.137050     -0.423687      0.722631
C       1.609691     -0.298388      0.358353
C       2.098487      1.107581      0.151338
O       1.430728      2.101478      0.266786
H      -2.509823     -1.239129      0.559104
H      -2.468979      0.529259      0.501458
H      -2.900176     -0.389927     -0.947339
H      -0.616920     -1.327602     -1.067742
H      -0.349076      1.443258     -0.873113
H      -0.136656      0.394630      1.396435
H      -0.025555     -1.352156      1.274947
H       1.852159     -0.858905     -0.552197
H       2.253443     -0.723735      1.137569
H       3.173481      1.192998     -0.107427
