16
smiles: [C:1]([C:2](=[C:6]([H:15])[H:16])[H:10])([H:7])([H:8])[H:9].[C:3]([C:4](=[O:5])[H:14])([H:11])([H:12])[H:13]
C        1.83936800      -0.29412200       0.26952100
C        1.11580700       0.79188300       0.99990100
C       -1.27121000       0.04676700      -1.75773000
C       -1.62970700      -0.80669700      -0.57883900
O       -1.21427500      -1.91637300      -0.38975100
C        0.15416300       0.60128500       1.88970100
H        1.71305600      -0.18734000      -0.81108300
H        2.91324000      -0.24965400       0.46913000
H        1.47699600      -1.28063600       0.56176500
H        1.41773500       1.81055200       0.76665900
H       -0.81813800       0.97750200      -1.40626600
H       -0.58578100      -0.47883300      -2.41958800
H       -2.18091600       0.32152600      -2.29806900
H       -2.33082000      -0.34303900       0.14739200
H       -0.33238700       1.43286600       2.38474200
H       -0.18221500      -0.39573300       2.15589600
