14
Extracted from Q-Chem output
C       1.729064      0.310507     -0.304319
C       0.404254      0.242177      0.429196
C      -0.336507     -1.093435      0.356336
C      -1.453443     -0.463509     -0.197218
O      -2.652613     -0.921731     -0.110733
C      -0.821553      0.898826     -0.299755
H       1.623973     -0.056768     -1.328300
H       2.106737      1.334668     -0.344178
H       2.479645     -0.305497      0.195380
H       0.507480      0.625486      1.447450
H      -1.753633     -1.310374      0.810940
H       0.008422     -2.118708      0.353382
H      -1.348978      1.711523      0.198518
H      -0.587995      1.178416     -1.328042
