13
Extracted from Q-Chem output
C      -2.348580      0.128307      0.249017
O      -0.979539     -0.263019      0.337137
C      -0.228088      0.010788     -0.735339
O      -0.649328      0.520249     -1.735929
C       1.201423     -0.400802     -0.495051
C       1.897118      0.565495      0.423382
O       2.908530     -0.071690      0.952131
H      -2.832330     -0.359896     -0.596921
H      -2.806303     -0.185531      1.183430
H      -2.427942      1.208711      0.128549
H       1.734387     -0.325072     -1.448868
H       1.262465     -1.433408     -0.136944
H       3.390602      0.543452      1.515840
