16
Extracted from Q-Chem output
C      -1.009332      0.024137     -1.284060
C      -0.058972     -0.080830     -0.115721
C       1.133640     -0.968016     -0.400208
C       0.303546      1.226942      0.579584
C       0.050254      0.636066      1.973871
O      -0.819511     -0.638743      1.040175
H      -1.321334     -0.965083     -1.626127
H      -1.896129      0.592661     -1.003941
H      -0.517073      0.538638     -2.111695
H       1.778658     -1.023103      0.478447
H       1.711220     -0.551591     -1.226473
H       0.815423     -1.974227     -0.687935
H       1.341340      1.525776      0.417927
H      -0.349584      2.045275      0.256515
H      -0.847181      1.101051      2.403844
H      -0.404432     -1.448034      1.350478
