16
Extracted from Q-Chem output
C      -0.903727      0.012396     -1.393964
C       0.108072      0.061622     -0.305162
C       1.230037     -0.904059     -0.414726
C       0.205761      1.232086      0.588120
C      -0.027361      0.349787      1.772437
O      -1.178991     -0.472954      1.234399
H      -1.154061     -1.008730     -1.681478
H      -1.806247      0.559946     -1.140873
H      -0.432521      0.497157     -2.260387
H       2.005331     -0.695780      0.316261
H       1.615984     -0.861504     -1.442175
H       0.878480     -1.927908     -0.268474
H       1.219029      1.644953      0.592660
H      -0.521116      2.017807      0.328808
H      -0.334116      0.879585      2.673479
H      -0.945784     -1.378172      1.438863
