14
Extracted from Q-Chem output
C       2.023512      0.244020      0.549462
C       0.587774      0.718570      0.499758
N      -0.127138     -0.226356     -0.457335
C      -1.574464      0.054052     -0.524040
C      -2.266939     -0.508670      0.631745
N      -2.831311     -0.973860      1.513797
H       2.561587      0.437248     -0.387275
H       2.169494     -0.830352      0.788327
H       2.550650      0.806424      1.321455
H       0.104430      0.512536      1.463781
H       0.269533     -0.047365     -1.375963
H       0.011437     -1.236339     -0.278474
H      -2.011116     -0.365441     -1.431845
H      -1.665292      1.142145     -0.518362
