14
Extracted from Q-Chem output
C       1.319094      1.230785     -0.117366
C       0.285238     -1.766184      0.145042
O      -0.023773     -2.571246      1.119078
C      -0.905050     -0.913996     -0.211934
O      -0.682182      0.155855     -1.068171
C      -0.157951      1.318280     -0.452119
H       1.896095      0.976951     -1.006710
H       1.526464      0.469725      0.636333
H       1.665476      2.193808      0.264767
H      -0.930026     -2.451417      1.476082
H      -1.434652     -0.585389      0.708185
H      -1.576632     -1.606025     -0.743480
H      -0.745854      1.547347      0.449210
H      -0.335188      2.121221     -1.169308
