15
Extracted from Q-Chem output
C      -0.984440     -0.692003     -1.094409
C      -0.308065      0.182116     -0.070409
C      -0.955416      0.277696      1.286560
C       1.167680      0.268711     -0.125581
C       2.278265     -0.390618      0.127359
C       0.630687      1.477192     -0.607543
C      -0.468046      2.070282     -0.817425
H      -0.468203     -0.647206     -2.051663
H      -2.022531     -0.393164     -1.236827
H      -0.968257     -1.726791     -0.739941
H      -0.932314     -0.707320      1.761302
H      -0.423599      0.981759      1.923691
H      -1.994256      0.594093      1.197448
H       2.240327     -1.391201      0.537356
H       3.246392      0.050825     -0.065155
