10
Extracted from Q-Chem output
O      -1.261716      1.751053      0.193843
C      -0.563027      0.805897      0.268801
C      -0.800091     -0.707574      0.284985
N       0.322193     -1.197165      0.832989
C       1.151061     -0.478966      0.061773
N       0.930295      0.828852      0.311574
H      -1.781752     -1.134462      0.468850
H      -0.210693     -0.704372     -1.199264
H       0.840621     -0.729325     -1.195672
H       1.360789      1.542799     -0.262127
