12
Extracted from Q-Chem output
N       2.120706     -0.332192     -0.068196
C       0.771535      0.061066     -0.051547
C       0.100275      1.235182     -0.177807
N      -1.263928      1.035925     -0.066099
C      -1.393249     -0.241213      0.121204
O      -2.541323     -0.914187      0.281028
N      -0.218292     -0.896243      0.144294
H       2.548823     -0.233577     -0.976377
H       2.676474      0.151051      0.620182
H       0.512327      2.218284     -0.342692
H      -3.249866     -0.265264      0.227946
H      -0.068082     -1.878563      0.287311
