13
Extracted from Q-Chem output
N       2.345894      0.458705      1.340058
C       1.437617     -0.199951      0.879560
C       1.075159      0.288914     -0.471326
C      -0.270619     -0.483211     -1.089905
C      -1.111865     -0.760680     -0.037515
C      -1.098706      0.677467      0.386952
N      -0.127187      0.992442     -0.720895
H       1.864729      0.493277     -1.186243
H      -0.091567     -0.928681     -2.058418
H      -1.785833     -1.579812      0.160334
H       0.716051     -0.971037      1.309194
H      -2.033385      1.187944      0.149101
H      -0.765833      0.957371      1.386255
