13
Extracted from Q-Chem output
C       2.284702      0.335497     -0.399233
O       1.354688     -0.725081     -0.268357
C       0.078472     -0.360454     -0.066305
C      -0.974895     -1.219017      0.088454
N      -2.062243     -0.389956      0.262798
C      -1.621884      0.880528      0.206000
N      -0.325622      0.935297      0.007062
H       2.036733      0.973866     -1.249714
H       3.252500     -0.136537     -0.554327
H       2.307539      0.950444      0.502824
H      -1.042293     -2.292072      0.088707
H      -3.010661     -0.683532      0.406700
H      -2.277036      1.731016      0.313479
