21
smiles: [C:1](=[C:2]([C:3]([C:4]([C:5]([C:6]([O:7][H:21])([H:19])[H:20])([H:17])[H:18])([H:15])[H:16])([H:13])[H:14])[H:12])([H:9])[H:10].[H:8][H:11]
C       -3.30130400       0.58305400       0.30197700
C       -2.11747000       1.16737100       0.20186400
C       -0.84541800       0.64086900       0.79083400
C        0.21491200       0.33470000      -0.26703300
C        1.51940000      -0.16763400       0.33757300
C        2.56694400      -0.48267600      -0.70841100
O        3.73439100      -0.93522200      -0.04655700
H       -1.62553000      -2.80670200      -0.31315300
H       -4.18718600       1.00992300      -0.15229100
H       -3.42673600      -0.34674500       0.84770300
H       -1.97333200      -2.14890500      -0.34048700
H       -2.03591300       2.09819100      -0.35693100
H       -0.44097600       1.37998200       1.49217600
H       -1.05700800      -0.26027600       1.37406600
H        0.40485300       1.23697200      -0.85958800
H       -0.18413000      -0.40975100      -0.96426400
H        1.92746600       0.57958900       1.02516700
H        1.33710100      -1.06994500       0.92923500
H        2.18683000      -1.25136600      -1.39528400
H        2.78065000       0.41581600      -1.30370700
H        4.40088200      -1.14552800      -0.70131100
