21
Extracted from Q-Chem output
C      -3.402380      0.347216      0.654366
C      -2.206596      0.320146     -0.126832
C      -0.862801      0.181084      0.536994
C       0.311855     -0.126834     -0.380511
C       1.643913     -0.065015      0.355880
C       2.820666     -0.391471     -0.538345
O       4.003597     -0.295795      0.233296
H      -2.931771     -0.714912     -0.300145
H      -4.295894      0.809094      0.265315
H      -3.406700     -0.099983      1.637592
H      -2.104891     -1.006181     -0.999668
H      -2.219853      0.924778     -1.028578
H      -0.710173      1.145866      1.034720
H      -0.935760     -0.561067      1.336221
H       0.317648      0.585446     -1.213668
H       0.175914     -1.116632     -0.825906
H       1.796579      0.932140      0.779980
H       1.642408     -0.764850      1.197245
H       2.704838     -1.403010     -0.950906
H       2.849647      0.308874     -1.384627
H       4.755694     -0.498099     -0.324001
