14
Extracted from Q-Chem output
C      -1.535555     -0.590347      0.035012
C      -0.217714      0.131111     -0.057144
C       0.982082     -0.804635     -0.066872
O       2.223265     -0.152199     -0.065748
C      -0.144540      1.434150     -0.745729
O      -0.018450      1.129458      0.982248
H      -1.568450     -1.233043      0.917366
H      -1.681024     -1.212028     -0.851121
H      -2.353820      0.126650      0.083855
H       0.940701     -1.407534     -0.976644
H       0.893258     -1.490490      0.786408
H       2.246840      0.431365      0.697275
H      -0.602043      1.919035      0.500818
H       0.889760      1.646310     -1.034344
