12
Extracted from Q-Chem output
O      -0.460992      1.022491     -1.439276
C       0.001510      1.150195     -0.151288
C      -0.222822      0.082884      0.863298
C      -0.423243     -1.251787      0.182578
O       0.915565     -1.154926     -0.364091
C       1.273378     -0.108675      0.502936
H      -0.098738      0.205948     -1.808173
H      -0.059614      2.170017      0.214969
H      -0.605249      0.336673      1.843114
H      -0.487842     -2.097210      0.866673
H      -1.197016     -1.333107     -0.585646
H       1.307526      1.035091     -0.178431
