13
Extracted from Q-Chem output
C      -0.245995      1.064165     -1.028695
C       0.104920      0.220256      0.194805
C      -1.949890     -0.514987      1.424908
N      -1.011072     -0.684512      0.543624
C       1.328016     -0.556617     -0.017296
C       2.313307     -1.206748     -0.213429
H      -0.430422      0.425131     -1.893471
H       0.573456      1.740914     -1.270496
H      -1.143158      1.649562     -0.825615
H       0.244210      0.870381      1.061412
H      -1.744496      0.456081      1.921721
H      -1.029085     -1.531688     -0.012694
H       3.193957     -1.782306     -0.377217
