11
Extracted from Q-Chem output
O       0.768816     -0.890960      2.046082
C       0.424835     -0.670242      0.949307
C       0.841531     -0.488742     -0.502210
C      -0.314775      0.406909     -0.846805
N      -1.396484      0.110421      0.130010
C      -0.548509      1.163518      0.365189
H       1.805011      0.015488     -0.583595
H       0.902533     -1.475750     -0.977704
H      -0.631245      0.600807     -1.864504
H      -0.953461     -0.890345      0.627370
H      -0.853138      2.154230      0.659925
