14
Extracted from Q-Chem output
N      -0.865348      2.884220     -0.664118
C      -0.487918      1.960562     -0.090554
C      -0.052300      0.781041      0.588192
C       1.221591      0.129766      0.109626
C       0.901077     -1.305163     -0.449498
C      -0.363133     -1.732670     -0.494224
C      -1.352686     -0.638858     -0.136015
H      -0.166688      0.868351      1.665689
H       1.665750      0.699515     -0.708346
H       1.962266      0.051862      0.905763
H       1.743609     -1.868669     -0.833124
H      -0.423647     -0.861488      0.537172
H      -1.581982     -0.038545     -1.005754
H      -2.202004     -0.842369      0.507882
