12
Extracted from Q-Chem output
C      -1.652269      1.020256     -0.139676
C      -0.409163      0.214804     -0.065116
O       0.069184     -0.059071      1.174536
C       0.396093     -0.342144     -0.998932
C       1.445117     -1.007736     -0.287630
C       1.192748     -0.800865      1.020919
H      -2.483429      0.509040      0.350429
H      -1.918540      1.188668     -1.182199
H      -1.523545      1.990158      0.344699
H       0.258930     -0.288060     -2.067059
H       2.271354     -1.561829     -0.701915
H       1.689206     -1.101528      1.927866
