10
Extracted from Q-Chem output
N       1.656757     -0.158576     -0.203478
C       0.344658      0.212164     -0.188363
O      -0.316564     -0.581518      0.714818
N      -0.260408      1.096261     -0.854686
C      -1.684279     -0.604013      0.697570
O      -2.278785     -1.219981      1.517606
H       1.976261     -0.748713      0.543791
H       2.323017      0.480270     -0.595225
H       0.355837      1.588383     -1.488915
H      -2.108021     -0.020476     -0.126299
