10
Extracted from Q-Chem output
N       1.779738      0.090549      0.066852
C       0.438946     -0.045123      0.039754
O      -0.169003     -0.718347      0.957108
N      -0.434154      0.447143     -0.783243
C      -1.653942     -0.264754      0.356106
O      -2.377835     -1.111160     -0.030541
H       2.288821     -0.498482      0.700633
H       2.257687      0.417365     -0.751443
H      -0.237102      1.117338     -1.508200
H      -1.884686      0.609271      0.969792
