14
Extracted from Q-Chem output
C      -0.776297     -0.912785     -0.250782
C      -0.870225      0.569560     -0.656216
C       0.431659      0.997970      0.018607
O       0.229186      1.353389      1.355028
C       0.989938     -0.429873     -0.040215
O       1.507792     -0.980799      1.058273
H      -0.954082     -1.668798     -1.010100
H      -1.361847     -1.130761      0.650461
H       0.280684     -1.297298      0.616844
H      -1.750669      1.091222     -0.287455
H      -0.813381      0.680556     -1.739007
H       1.034214      1.746441     -0.505259
H       0.794158      0.756000      1.872000
H       1.399239     -0.718933     -1.017385
