12
Extracted from Q-Chem output
O      -1.338562      2.246507     -0.345544
C      -0.571764      1.376257     -0.084102
C      -0.940154     -0.005025      0.380124
C      -0.003947     -1.015387     -0.253087
N       1.359041     -0.541027     -0.056245
C       1.780719      0.708655      0.005692
O       0.778238      1.626580     -0.156114
H      -0.830060     -0.025072      1.468255
H      -1.983687     -0.190022      0.136150
H      -0.209903     -1.122939     -1.322093
H      -0.112555     -1.996584      0.208540
H       2.090224     -1.226836      0.021632
