14
Extracted from Q-Chem output
C      -2.091520     -0.659433      1.012940
C      -0.682581     -0.330268      0.665207
C       1.650519     -0.029597     -0.858396
O       2.150440     -0.482001      0.368820
C       0.613227      1.063273     -0.719041
O      -0.677205      0.590734     -0.243147
H      -2.210548     -0.503022      2.089030
H      -2.228844     -1.733760      0.860910
H      -2.845670     -0.093873      0.458309
H       2.488963      0.383168     -1.425814
H       1.224490     -0.849293     -1.455748
H       1.357478     -0.741450      0.872607
H       0.393886      1.520837     -1.684056
H       0.948869      1.830794     -0.020375
