14
Extracted from Q-Chem output
C      -1.537615     -0.652649      0.458598
C      -0.209893     -0.025109      0.815487
C       1.075421     -0.344887     -0.486253
O       2.264616     -0.349405      0.213529
C       0.128835      1.240840     -0.391997
O      -0.358426      1.388477      0.873450
H      -2.115190     -0.613210      1.385496
H      -1.421093     -1.702949      0.187020
H      -2.123995     -0.137164     -0.310521
H       1.342105     -0.038475     -1.508714
H       0.595964     -1.319086     -0.620072
H       2.002667     -0.521009      1.127917
H      -0.610673      1.200425     -1.190610
H       1.002232      1.857772     -0.581065
