19
Extracted from Q-Chem output
C      -1.804602     -0.834816      0.142816
C      -0.835975      0.333156      0.057307
C      -0.156578      0.703426      1.389162
C       1.128960      1.343285      0.939773
C       0.870361     -1.235494     -1.120671
C       1.383380      1.082216     -0.335125
C       0.334387      0.187511     -0.951670
H      -1.310928     -1.745356      0.489889
H      -2.612565     -0.613050      0.843642
H      -2.259509     -1.048911     -0.827337
H      -1.397858      1.217679     -0.260626
H      -0.778410      1.362733      1.999741
H       0.047791     -0.185242      1.999880
H       1.771111      1.915987      1.598067
H       0.128117     -1.895718     -1.573866
H       1.165849     -1.661626     -0.158632
H       1.753439     -1.237245     -1.763215
H       2.268795      1.403435     -0.871918
H       0.025659      0.552880     -1.936469
