19
Extracted from Q-Chem output
C      -1.914820     -0.750674      0.007252
C      -1.057590      0.498842      0.079390
C      -0.117157      0.587578      1.296436
C       1.142520      0.805176      0.482272
C       1.218021     -1.203312     -0.461762
C       0.929824      1.740933     -0.576218
C       0.066173      0.661218     -0.937379
H      -1.334635     -1.656835      0.179278
H      -2.700403     -0.707022      0.764358
H      -2.401171     -0.835960     -0.967807
H      -1.697668      1.379716     -0.010479
H      -0.302055      1.421311      1.974712
H      -0.102984     -0.343652      1.860531
H       2.138603      0.525763      0.801232
H       0.528721     -1.801400     -1.054827
H       1.405856     -1.709340      0.484933
H       2.146756     -1.048941     -1.011820
H       1.776238      1.917577     -1.235047
H       0.068699      0.241041     -1.936071
