16
Extracted from Q-Chem output
C      -1.120794     -0.209652      1.212073
C      -0.324528      0.036931      0.086815
C       0.186652     -1.085230     -0.674673
C      -0.379474      1.331136     -0.700512
O       1.060683      1.501701     -0.716128
C       1.321215      0.424380      0.065438
N       2.332316      0.080373      0.699577
H      -0.889441     -1.069516      1.829968
H      -1.589898      0.621736      1.726022
H      -1.873858     -1.391433      0.116627
H       0.659555     -1.898893     -0.142809
H      -1.445481     -1.788240     -0.505495
H       0.432080     -0.976671     -1.725024
H      -0.850433      2.146354     -0.153455
H      -0.771461      1.264527     -1.716715
H       3.077800      0.769321      0.643922
