16
Extracted from Q-Chem output
C       3.025105      0.461802      0.133051
C       1.656667      0.493074     -0.069613
C       0.499519      0.171143     -0.525147
C      -0.690466     -0.480098      0.070960
C      -1.653888     -1.016001     -0.985134
C      -1.389748      0.527504      0.994765
H       3.530539      1.307936      0.577493
H       3.631169     -0.361322     -0.230554
H       2.033529      1.496813     -0.541996
H      -0.350042     -1.317032      0.699677
H      -2.037788     -0.197017     -1.597074
H      -2.499245     -1.526394     -0.516739
H      -1.154104     -1.722221     -1.649463
H      -1.691200      1.415266      0.434666
H      -2.286502      0.077113      1.424266
H      -0.732552      0.840787      1.806224
