17
Extracted from Q-Chem output
C      -2.060941     -0.212245      0.587011
C      -0.635879     -0.473860      0.969829
O      -0.242637     -1.816815      0.816447
C       0.677125     -0.968493      0.208681
C       0.734367     -0.731854     -1.258792
C       0.168916      0.548903     -0.763973
C       1.212429      1.548637     -0.352170
H      -2.266475      0.855820      0.606060
H      -2.270039     -0.586044     -0.411618
H      -2.706262     -0.725313      1.309277
H      -0.336912     -0.049417      1.929501
H       1.593258     -0.815657      0.770012
H       1.763175     -0.734849     -1.622275
H       0.078496     -1.363169     -1.853003
H       1.292219      2.216927     -1.216823
H       0.883375      2.173147      0.480332
H       2.225641      1.169375     -0.144086
