15
Extracted from Q-Chem output
C      -0.056404     -1.510736     -0.451364
C      -0.309866     -0.076800     -0.080728
C       0.185448      1.049511     -0.969788
C       1.232854      0.870657      0.033058
C       2.553500      0.712481      0.178173
C      -1.451161      0.179917      0.746497
C      -2.411775      0.389414      1.433505
H      -0.949483     -1.919744     -0.931919
H       0.789891     -1.587944     -1.131489
H       0.149001     -2.116567      0.431607
H       0.671205      0.609518      1.021385
H       0.454789      0.751236     -1.979223
H      -0.419313      1.951755     -0.938679
H       2.842692      0.073568      1.021041
H      -3.264720      0.578698      2.041857
