12
Extracted from Q-Chem output
C       1.331979     -0.128395      0.056057
C       0.073925      0.706788      0.020440
C      -1.428413     -1.088690     -0.154165
N      -1.124448      0.318602     -0.069976
C       0.274479      2.146481      0.100941
N       0.489505      3.271757      0.168301
H       1.386440     -0.777091     -0.819024
H       1.346319     -0.757502      0.947879
H       2.215119      0.506349      0.071288
H      -1.881007     -1.279513     -1.129815
H      -0.580218     -1.765279     -0.017775
H      -2.188517     -1.316320      0.594579
