12
Extracted from Q-Chem output
C       2.349564     -0.053942      0.947392
O       1.125447      0.541705      0.545479
C       0.108197     -0.299846      0.350190
C      -2.219903     -0.192284     -0.316003
N      -0.939889      0.410852     -0.027282
H       2.676016      0.416965      1.875560
H       2.206376     -1.123652      1.097194
H       3.097746      0.120337      0.172483
H      -2.118243     -1.266585     -0.178284
H      -2.524476      0.008231     -1.345535
H      -2.992655      0.181541      0.359355
H      -0.857361      1.418324     -0.118307
