12
Extracted from Q-Chem output
C       2.281290     -0.267285      0.866423
O       1.004965      0.379628      0.807863
C       0.250420      0.068644     -0.195259
C      -2.102401     -0.097380     -0.002767
N      -0.959023      0.825772     -0.040259
H       2.339534     -0.791903      1.818650
H       2.377445     -0.958698      0.031050
H       3.046728      0.505974      0.823785
H      -2.119604     -0.614767      0.956724
H      -2.078138     -0.850749     -0.799872
H      -3.020111      0.484253     -0.080741
H      -1.038117      1.343825     -0.911621
