10
Extracted from Q-Chem output
O       1.864326      0.277369      0.940180
C       1.132112     -0.154924      0.123785
O       0.495907      1.115803     -0.970022
C      -0.532536      1.143233     -0.243911
C      -0.323293     -1.016959      0.144228
O       0.933090     -1.228265     -0.587024
H      -0.476654      1.419651      0.813690
H      -1.520482      1.221350     -0.714264
H      -0.373452     -1.636943      1.033506
H      -1.167925     -1.105146     -0.530775
