14
Extracted from Q-Chem output
C      -0.783700      1.159350     -0.232682
C       0.192007      0.041458      0.014707
C       1.132342      0.250620      1.171138
O       0.824848     -0.498231     -1.170716
C      -0.073091     -1.315097     -0.468961
O      -1.215466     -1.714046     -1.118802
H      -0.246261      2.074965     -0.487559
H      -1.472348      0.940265     -1.048195
H      -1.374678      1.349216      0.665151
H       1.808264     -0.597455      1.279737
H       0.574698      0.373335      2.101815
H       1.734558      1.148371      1.013891
H      -1.465276     -1.032154     -1.747526
H       0.361442     -2.168455      0.046054
