13
Extracted from Q-Chem output
O       1.426527     -1.708398      0.478546
C       1.422688     -0.803720     -0.296176
N       1.204989      0.554932      0.115750
C      -0.350865      1.068158      0.057202
C      -1.226713      0.111466      0.820818
C      -1.249754      0.085364     -0.678052
H       1.495933     -0.910921     -1.387511
H       1.475591      0.689044      1.085359
H       1.685358      1.220795     -0.477069
H      -0.829123     -0.784808      1.290897
H      -2.040052      0.563867      1.376313
H      -2.067515      0.539832     -1.224457
H      -0.913217     -0.844270     -1.126291
