14
smiles: [C:1](=[C:2]([H:9])[H:10])([H:7])[H:8].[C:3](=[C:4]([C:5](=[O:6])[H:14])[H:13])([H:11])[H:12]
C       -1.93613100      -1.37635700      -0.92073300
C       -1.19894400      -1.00291500      -1.95243400
C        1.07635300       2.07326600       1.38250400
C        0.71568900       0.92347900       0.82813000
C        1.59742500      -0.25642100       0.90389600
O        1.33721400      -1.32789000       0.42457100
H       -1.49012400      -1.77576500      -0.01701700
H       -3.01740200      -1.29872700      -0.93645800
H       -0.11767500      -1.08042200      -1.93673300
H       -1.64505400      -0.60340200      -2.85606000
H        2.02528100       2.16616700       1.90177700
H        0.45059600       2.95602300       1.34222300
H       -0.22443100       0.79728700       0.30234800
H        2.55050000      -0.09075300       1.45002300
