14
Extracted from Q-Chem output
C      -1.347756     -1.088305     -0.224610
C      -0.647091      0.042520     -0.754084
C       0.147072      1.495492      0.734736
C       0.713409      0.531833     -0.178571
C       1.508211     -0.569376      0.486715
O       2.632847     -0.860506      0.189553
H      -0.799800     -1.933660      0.167316
H      -2.427772     -1.148940     -0.246875
H      -0.566562     -0.852848     -1.515470
H      -1.227634      0.826459     -1.225758
H      -0.533959      1.169143      1.508842
H       0.323983      2.553532      0.610232
H       1.325817      0.983972     -0.955951
H       0.990832     -1.061379      1.337789
