11
Extracted from Q-Chem output
N      -2.096059     -0.032378      0.295316
C      -0.964145     -0.604063     -0.231092
O      -0.963486     -1.614367     -0.877296
N       0.203345      0.097707      0.123935
C       1.419703     -0.144728     -0.413979
N       2.482578      0.525246      0.022567
H      -2.955083     -0.440684     -0.029434
H      -2.120696      0.954014      0.483687
H       0.118914      0.833667      0.819946
H       2.523714     -0.714438     -0.172919
H       2.335521      1.122826      0.855987
