11
Extracted from Q-Chem output
N       1.504708     -0.008847      0.560699
C       1.121598     -0.722506     -0.513690
C       0.484713      0.807060     -0.538089
C      -0.773022      0.648030     -0.118046
C      -1.017496     -0.762122      0.358061
O       0.037896     -1.539161     -0.175640
H       2.330257      0.526904      0.294584
H       0.932604      1.655026     -1.027342
H      -1.562270      1.379997     -0.225795
H      -1.936643     -1.166206     -0.072374
H      -1.106681     -0.804999      1.451837
