13
Extracted from Q-Chem output
O      -1.969000     -0.575010      0.287189
C      -0.810493     -0.796099     -0.228345
C       0.098878      0.341304     -0.684019
C      -0.132252      1.605574      0.089849
O      -1.046449      1.752951      0.875697
C       1.531653     -0.047348     -0.562237
C       1.582931     -0.972768      0.367354
H      -1.925786      0.338806      0.692324
H       0.523460     -1.209038      0.854573
H      -0.713513     -1.759993     -0.718954
H      -0.229923      0.533442     -1.723233
H       0.609617      2.400444     -0.073899
H       2.369391     -1.603592      0.763944
