16
Extracted from Q-Chem output
C       2.296971     -0.189412     -0.077053
C       0.959736     -0.798016      0.330345
C      -1.570790     -0.322280      0.000637
C      -2.161644      0.714566     -0.892715
C      -0.865242      0.961248     -0.201479
C      -0.179244     -0.322942     -0.538264
H       3.111153     -0.564865      0.545260
H       2.275269      0.898627      0.014518
H       2.534648     -0.427815     -1.116430
H       1.020641     -1.889050      0.274345
H      -1.958244     -0.754244      0.908599
H      -2.168337      0.549377     -1.969676
H      -3.026970      1.248634     -0.514411
H       0.741138     -0.553884      1.375026
H      -0.597695      1.715478      0.520208
H      -0.058412     -0.552811     -1.600340
