16
Extracted from Q-Chem output
C       2.050283     -0.176263      0.237325
C       0.597535     -0.673755      0.161758
C      -1.305479     -0.759746     -0.355529
C      -1.838332      0.568117     -0.052622
C      -0.495330      1.147679     -0.480579
C      -0.154243     -0.204498     -1.090895
H       2.462054     -0.351433      1.233737
H       2.103192      0.892615      0.023761
H       2.672902     -0.713102     -0.484063
H       0.598834     -1.750267      0.364326
H      -1.593463     -1.769912     -0.111205
H      -2.487833      0.796810     -0.912532
H      -2.337014      0.817149      0.883264
H       0.114234      0.374814      0.721482
H      -0.372674      2.118291     -0.956389
H       0.184250     -0.418406     -2.098324
