12
Extracted from Q-Chem output
C      -1.357375      0.698285     -0.070669
C      -0.718375     -0.576329      0.389598
O      -0.121728     -1.406495     -0.602660
C       0.722553     -0.827888      0.370543
C       1.871759      1.435036      0.105347
C       1.718036      0.173143     -0.109348
H      -0.747244      1.199793     -0.819845
H      -1.503289      1.373721      0.774918
H      -2.335751      0.485988     -0.505061
H      -1.286406     -1.139172      1.128576
H       1.136639     -1.537971      1.082621
H       2.545487     -0.157101     -0.752973
