14
Extracted from Q-Chem output
C      -1.920968     -0.121125     -0.316384
C      -0.433156     -0.201059     -0.550642
N       0.281508      1.010816     -0.201648
O       0.136120     -1.169585      0.306452
C       1.426193     -0.744141      0.694298
C       1.445586      0.755656      0.449067
O       2.308896      1.540100      0.755334
H      -2.118872      0.157150      0.718877
H      -2.375275      0.615160     -0.982135
H      -2.374321     -1.091768     -0.518477
H       0.098575      1.906295     -0.618777
H       1.591863     -0.975499      1.746066
H       2.212658     -1.219733      0.095771
H      -0.228572     -0.472975     -1.598675
