14
Extracted from Q-Chem output
C      -1.916230     -0.150245     -0.443920
C      -0.525185     -0.042694      0.051267
N       0.072067      1.083487      0.551901
O       0.037266     -1.147042      0.550500
C       1.418949     -0.790922      0.662493
C       1.393628      0.531931     -0.128438
O       2.279635      1.274746     -0.485623
H      -2.593550     -0.008507      0.402490
H      -2.115938      0.628515     -1.177885
H      -2.087723     -1.130617     -0.882245
H      -0.213186      1.921175      0.057728
H       1.681677     -0.564833      1.696532
H       2.023878     -1.593704      0.247700
H       0.594943     -0.021998     -1.123375
