10
Extracted from Q-Chem output
C       1.507146     -0.304872     -0.260588
C       2.295700     -1.325646     -0.338814
C       0.118259      0.011479     -0.021442
C      -0.558690      1.201065      0.044411
N      -1.863531      0.940343      0.296360
N      -2.030361     -0.334950      0.388880
N      -0.846625     -0.909004      0.200306
H       2.228737      0.510032     -0.452526
H      -0.188128      2.205747     -0.072152
H      -0.770775     -1.911675      0.233093
