10
Extracted from Q-Chem output
C       1.893055     -0.044924     -0.179677
C       1.335720     -0.474203     -1.213518
C       0.091944     -0.099545     -0.370766
C      -0.610061      1.066251     -0.147373
N      -1.747727      0.770542      0.522038
N      -1.798318     -0.504430      0.726762
N      -0.697474     -1.038688      0.211913
H       2.433478      0.317668      0.672007
H      -0.354764      2.071222     -0.438517
H      -0.564693     -2.035892      0.223925
