10
Extracted from Q-Chem output
N       1.841934     -0.029043      0.217751
C       0.519094      0.069646     -0.094513
N      -0.333175     -0.878054      0.047229
C      -1.549490     -1.052569      0.366231
N      -2.072233      1.202547      0.356512
N      -1.074187      1.482868     -0.102714
N       0.087628      1.313687     -0.589044
H       2.200117     -0.956508      0.362072
H       2.448731      0.607202     -0.271148
H      -2.063642     -1.771278     -0.291739
