15
Extracted from Q-Chem output
C      -1.716414     -0.776470     -0.194824
C      -0.491909      0.076989     -0.418831
N      -0.439138      1.342286      0.338940
C       0.990270      1.135324      0.621695
C       0.830184     -0.350657      0.263015
N       1.830863     -0.854786     -0.678661
O       2.269960     -1.929661     -0.398338
H      -2.600594     -0.291536     -0.613724
H      -1.885821     -0.927210      0.872203
H      -1.604382     -1.749976     -0.677680
H      -0.308713      0.216383     -1.492104
H      -0.664197      2.175037     -0.187188
H       1.290545      1.357613      1.646256
H       1.673135      1.631726     -0.076051
H       0.710507     -1.034942      1.104220
