19
Extracted from Q-Chem output
C       0.901715      0.781441      1.014597
C       1.978838     -0.024516      0.298438
O      -0.363089     -1.627144     -1.991468
C      -0.566267     -1.505128     -0.814847
C      -0.442902      0.068971      1.156468
C      -1.167236     -0.288260     -0.152953
C      -1.334691      0.871007     -1.122023
H       1.250728      1.033456      2.020034
H       0.758698      1.737542      0.502790
H       2.936512      0.497775      0.323420
H       2.122532     -0.999927      0.771301
H       1.733578     -0.198529     -0.751094
H      -0.339297     -2.341919     -0.117512
H      -1.111316      0.700758      1.747488
H      -0.303614     -0.848661      1.740665
H      -2.164097     -0.644246      0.148817
H      -1.954386      0.581726     -1.970131
H      -1.802041      1.723299     -0.625111
H      -0.373070      1.194321     -1.523165
