6
smiles: [C:3](#[C:4][H:6])[H:5].[O+:1]#[C-:2]
O       -1.77061100       1.42150400      -1.59897500
C       -2.12680500       0.62622500      -0.88993900
C        0.50656300      -0.80218800       0.84978300
C        1.46600700      -0.23879900       0.41484100
H       -0.34966100      -1.30268600       1.23723800
H        2.32176200       0.26190100       0.02671300
