6
Extracted from Q-Chem output
O      -1.941121      0.838795     -0.945207
C      -1.664140      0.044386     -0.185624
C       0.440249     -0.203649      0.232787
C       1.644722     -0.063667      0.200674
H      -1.184777     -0.669298      0.518217
H       2.705066      0.053432      0.179155
