15
Extracted from Q-Chem output
C      -2.319628      0.181253      0.529828
C      -1.208489     -0.323926     -0.376761
N       1.175992      0.051394     -0.637338
C       0.166917     -0.157587      0.248466
O       0.347730     -0.228730      1.447616
C       2.558724      0.163374     -0.237463
H      -3.297330     -0.008933      0.084816
H      -2.225999      1.254703      0.702107
H      -2.273314     -0.313723      1.498723
H      -1.337882     -1.394198     -0.567656
H      -1.242270      0.173409     -1.350048
H       0.949182      0.085099     -1.614135
H       3.008984      1.066683     -0.652659
H       3.142779     -0.703488     -0.556343
H       2.585670      0.221053      0.848560
