14
Extracted from Q-Chem output
C      -1.337859     -0.922297     -0.537125
C      -0.538212      0.354151     -0.583448
C      -0.177416      1.084177      0.677270
C       0.893771      0.393819     -0.208178
C       1.477675     -0.805906      0.894475
O       1.937163     -0.867598     -0.331186
H      -1.050914     -1.521774      0.324591
H      -2.404515     -0.697335     -0.479175
H      -1.161866     -1.512204     -1.438068
H      -0.762821      0.989465     -1.434751
H      -0.431973      0.626791      1.619137
H      -0.138557      2.167897      0.668309
H       1.542791      1.104340     -0.700150
H       2.273034     -0.398869      1.575093
