17
smiles: [C:1]([C:2](=[C:3]([H:12])[H:13])[H:11])([H:8])([H:9])[H:10].[C@:4]12([H:14])[C:5]([H:15])([H:16])[C:6]1=[C:7]2[H:17]
C       -1.50148900       1.53672500       0.04057700
C       -1.71137100       0.06026500       0.15198900
C       -1.88979300      -0.76192900      -0.87019900
C        2.13985600      -1.18904100       0.32779600
C        1.85205600      -0.15783400      -0.67112300
C        1.81801100       0.51586700       0.73899900
C        1.46010900      -0.61896400       1.41141500
H       -2.28075600       2.08232500       0.57906200
H       -0.54591300       1.83097100       0.48230200
H       -1.51228200       1.86276700      -1.00044200
H       -1.71598000      -0.34936800       1.15959700
H       -2.03925600      -1.82470700      -0.72324700
H       -1.89343200      -0.40075300      -1.89373200
H        3.08027700      -1.73587800       0.38465800
H        0.86202200      -0.17719900      -1.10829300
H        2.62545900       0.14253800      -1.37393400
H        1.20354700      -0.89533500       2.42033100
