17
Extracted from Q-Chem output
C      -1.183411      1.291739      0.209364
C      -0.957945     -0.198888      0.286030
C      -1.216943     -1.042853     -0.827834
C       0.540064     -0.660878      0.024093
C       1.546160      0.235640     -0.684964
C       2.290374      0.356862      0.643228
C       1.439625     -0.288698      1.387324
H      -2.212878      1.512623      0.494565
H      -0.512818      1.821665      0.887645
H      -1.031736      1.668838     -0.801923
H      -1.272291     -0.613163      1.241951
H      -1.516548     -2.073247     -0.703125
H      -1.116578     -0.657412     -1.834695
H       0.713452     -1.726444     -0.126980
H       1.153613      1.188346     -1.036662
H       2.103570     -0.235140     -1.495794
H       1.200583     -0.630474      2.383115
