13
smiles: [H:7][H:11].[O:1]=[C:2]([C:3]([N:4]([C:5](=[O:6])[H:13])[H:12])([H:9])[H:10])[H:8]
O       -2.30607700      -1.25913800       0.31046900
C       -1.15957300      -1.09686800       0.00682600
C       -0.19125300      -0.25724500       0.81686500
N        0.85011900       0.32905200       0.00988600
C        2.04707200      -0.28184400      -0.17787500
O        2.35510600      -1.34569300       0.30272900
H       -2.21604500       1.77191300      -0.57771200
H       -0.72235800      -1.56589300      -0.89925800
H        0.28165200      -0.92182300       1.54553800
H       -0.74456800       0.50827500       1.36107100
H       -1.91079400       2.38934800      -0.86053400
H        0.68206900       1.20237000      -0.45643400
H        2.72539400       0.30513900      -0.82070700
