13
Extracted from Q-Chem output
O      -2.529792     -0.359159      0.364213
C      -1.385963     -0.799269     -0.058869
C      -0.175510     -0.032379      0.315489
N       0.964453     -0.091771     -0.384322
C       2.215097      0.280181      0.126136
O       2.388831      0.633372      1.251752
H      -1.995121      1.161387      0.136711
H      -1.300739     -1.154973     -1.112620
H      -0.985860     -1.673125      0.568305
H      -0.083384      0.343295      1.328479
H      -1.347803      1.634605      0.009426
H       0.916145     -0.378203     -1.351689
H       3.010389      0.213630     -0.632148
