15
Extracted from Q-Chem output
C       1.536912     -1.030810     -0.841784
C       0.389066     -0.242796     -0.269127
C       0.555162      0.947340      0.236522
C       0.719635      2.134799      0.741302
C      -2.115245     -0.011626      0.056651
C      -0.962940     -0.917687     -0.289377
O      -2.976829     -0.289571      0.843185
H       2.475291     -0.485933     -0.756496
H       1.640209     -1.986327     -0.320719
H       1.358098     -1.253071     -1.897372
H       0.630402      3.024565      0.127884
H       0.950125      2.270638      1.792084
H      -2.136520      0.953354     -0.489536
H      -1.149335     -1.297145     -1.303213
H      -0.978159     -1.780305      0.381369
