15
Extracted from Q-Chem output
C       2.622925     -1.068079     -1.554974
C       1.626907     -0.294845     -0.822107
C       0.814444      0.344603     -0.215715
C      -0.202024      1.107943      0.506262
C      -1.600184      0.668263      0.139618
C      -2.331755     -0.301639      0.943237
O      -2.632274      1.085838      1.011444
H       3.632416     -0.764564     -1.273627
H       2.518322     -2.133698     -1.345302
H       2.512503     -0.921586     -2.630538
H      -0.092785      2.172675      0.281021
H      -0.065735      0.996370      1.584924
H      -1.844313      0.746332     -0.917971
H      -3.096747     -0.919964      0.483561
H      -1.861701     -0.717648      1.830366
