13
Extracted from Q-Chem output
C      -0.546839      0.789791      1.563439
C      -0.451989     -1.055544     -1.659343
C       0.424947     -0.934531     -0.675853
C       0.971120      0.374113     -0.184551
O       0.791311      0.558069      1.201759
H      -0.566288      0.945318      2.641271
H      -0.942612      1.686440      1.067561
H      -1.195028     -0.057833      1.312874
H      -0.847477     -0.183954     -2.171555
H      -0.804118     -2.023408     -1.995379
H       0.801255     -1.819032     -0.167767
H       2.051393      0.409140     -0.346182
H       0.518240      1.204552     -0.745731
