14
Extracted from Q-Chem output
O       1.909631      1.076138      0.243112
C       1.625358     -0.627538     -0.274322
C       0.231304     -0.916685      0.181954
C      -0.805975     -0.149405     -0.591907
C      -1.947815      0.484057      0.056841
O      -0.823150      1.262342     -0.335715
H       1.012929      1.455070      0.229475
H       2.045445      0.689119     -0.726336
H       2.352777     -1.092143      0.392836
H       0.086443     -1.989358     -0.000102
H       0.081228     -0.756269      1.259158
H      -0.876978     -0.387656     -1.650027
H      -2.078971      0.369901      1.129099
H      -2.852566      0.683908     -0.508147
