11
Extracted from Q-Chem output
N       2.087940     -0.565502     -0.894107
C       1.021875     -0.144290     -0.385419
C       0.491656      0.820490      0.559772
C      -0.404927      0.140044     -0.548433
C      -1.167888     -0.380643      0.661454
O      -0.251328      0.214282      1.600848
H       0.841337      1.836172      0.702104
H      -0.853403      0.522284     -1.455820
H       1.890687     -1.119794     -1.727718
H      -2.154654      0.074900      0.764856
H      -1.241528     -1.464499      0.775753
