19
Extracted from Q-Chem output
C       1.969553     -0.827252     -0.496178
C       0.901985     -0.048952      0.235580
O       0.986947     -0.040825      1.501485
C       0.282589      1.199612     -0.409153
C      -1.211370      1.244802     -0.023495
C      -1.614690     -0.177831      0.273580
C      -0.838810     -1.115444     -0.376311
H       2.917679     -0.292150     -0.394479
H       1.753982     -0.947239     -1.558047
H       2.087685     -1.806900     -0.034877
H      -0.280302     -0.177399      1.946448
H       0.812175      2.081365     -0.044940
H       0.405370      1.167367     -1.493395
H      -1.382127      1.875613      0.848198
H      -1.823032      1.654513     -0.832096
H      -2.584397     -0.387738      0.709703
H      -1.139021     -0.318988      1.833104
H      -0.456962     -0.875444     -1.357665
H      -0.981171     -2.173476     -0.183025
