15
Extracted from Q-Chem output
O       0.792360     -0.690163     -1.308370
C       0.502549     -1.297440     -0.080489
C      -0.944326     -1.242174      0.204291
C      -1.166955      0.322572     -0.020409
C       0.121763      1.196242     -0.080360
C       1.369376      0.326827     -0.452399
C       1.445544     -0.689648      0.665146
H      -1.572645     -1.811339     -0.480482
H      -1.163740     -1.536747      1.229839
H      -1.698648      0.437106     -0.963103
H      -1.823085      0.692346      0.768363
H      -0.011749      1.971695     -0.838030
H       0.303212      1.705952      0.868477
H       2.215215      0.870666     -0.880493
H       1.507198     -0.578614      1.737308
