15
Extracted from Q-Chem output
O       0.855572     -0.870121     -1.325644
C       0.467612     -1.270316     -0.157859
C      -1.002121     -1.216530      0.033976
C      -1.132851      0.361020      0.136235
C       0.076855      1.181653     -0.385909
C       1.437705      0.479127     -0.143316
C       1.371345     -0.660318      0.717422
H      -1.542675     -1.618000     -0.821767
H      -1.361264     -1.678682      0.952068
H      -2.036094      0.688375     -0.380466
H      -1.260868      0.591326      1.195217
H      -0.041531      1.460508     -1.434071
H       0.120879      2.118198      0.180817
H       2.313579      1.125556     -0.268895
H       1.692025     -0.805411      1.734807
