13
Extracted from Q-Chem output
C      -0.505565     -0.945532     -0.330304
C       0.034169      0.191656      0.364833
O       0.151822      0.095439      1.640944
C      -0.384775      1.540535     -0.210344
O      -0.422091      1.770218     -1.387617
C       1.518012     -0.145598     -0.493419
O       2.321840     -0.885091     -0.068909
H      -1.667419     -1.059118      1.070383
H      -0.167072     -1.925458     -0.019669
H      -0.935315     -0.847021     -1.323995
H      -1.169975     -0.693534      1.658707
H      -0.636586      2.288741      0.562846
H       1.620851      0.549983     -1.342298
