15
Extracted from Q-Chem output
O      -0.051249     -0.614711     -1.441098
C      -0.301597     -0.025527     -0.184493
C       0.811320     -0.327231      0.802180
C       2.135000      0.233047      0.364756
O       2.347812      0.710047     -0.719884
C      -1.718556     -0.366876      0.277010
C      -0.932307      1.297604     -0.096324
H       0.731579     -0.170942     -1.787963
H       0.578972      0.087942      1.786454
H       0.946999     -1.408557      0.930552
H       2.949521      0.174950      1.113347
H      -1.778488     -0.746406      1.291715
H      -2.229641     -0.956998     -0.475524
H      -1.372352      1.481144     -1.089274
H      -2.254210      0.652025      0.378562
