14
Extracted from Q-Chem output
C      -1.910427      0.580173     -0.480529
O      -1.457008     -0.590690      0.149727
C      -0.514372     -1.307436     -0.627429
C       0.908018     -0.960304     -0.617274
C       1.298320      0.085292      0.272957
C       2.386122      0.788162     -0.082215
H      -2.414189      0.352729     -1.429347
H      -2.622993      1.058949      0.190002
H      -1.091485      1.281702     -0.684550
H      -0.506548     -2.342174     -0.247205
H      -0.856006     -1.401039     -1.669659
H       2.994741      0.446780     -0.911183
H       2.653339      1.723381      0.399327
H       0.683332      0.405773      1.114815
