14
Extracted from Q-Chem output
C      -1.984218      0.455404     -0.217355
O      -1.264187     -0.694990      0.145026
C      -0.527480     -1.256327     -0.932572
C       0.841105     -0.773547     -1.146528
C       1.530490      0.108866     -0.509430
C       2.537150      0.669633      0.243450
H      -2.749621      0.229241     -0.970781
H      -2.474448      0.830243      0.680444
H      -1.334034      1.244384     -0.618187
H      -0.435020     -2.327961     -0.723525
H      -1.104196     -1.178410     -1.863423
H       3.122594      0.080514      0.943192
H       2.706207      1.738484      0.219018
H       0.969256      0.946413      0.083045
