11
Extracted from Q-Chem output
C      -1.484210      0.322677      0.408001
C      -0.201852      0.390807      0.066403
C       0.804400     -0.689294      0.383366
O       1.398795     -1.228875     -0.771934
C       0.288423      1.533672     -0.658957
N       0.689325      2.444824     -1.231246
H      -2.182432      1.113487      0.167256
H       0.714108     -1.609238     -1.326437
H      -1.862165     -0.536785      0.948964
H       1.622196     -0.271356      0.972966
H       0.308881     -1.457695      0.988076
