15
Extracted from Q-Chem output
N      -2.061313     -0.723885      0.125504
C      -0.900274      0.021985      0.022099
C       0.292219     -0.574143     -0.696205
C       1.598412      0.191450     -0.546906
O       2.084203      0.180518      0.781558
C      -1.093674      1.522500     -0.071113
N      -0.631894      1.371325      1.099038
H      -2.049731     -1.535608      0.720271
H      -2.918335     -0.198394      0.167446
H      -0.393638      0.182887      1.275898
H       0.018086     -0.608143     -1.755848
H       0.439397     -1.605398     -0.363484
H       1.482658      1.214804     -0.916208
H       2.353948     -0.295687     -1.165887
H       1.743327      0.954133      1.236883
