15
Extracted from Q-Chem output
C      -2.256958      0.469236      0.328569
C      -1.216602     -0.590254      0.165033
N       0.071655     -0.322142     -0.027024
C       1.149812     -1.099902     -0.196888
C       2.338658     -0.226990     -0.375183
N       1.816588      1.129721     -0.280196
C       0.579018      1.029286     -0.091990
H      -3.223788     -0.017725      0.453153
H      -2.113463      1.103413      1.212110
H      -2.356044      1.131983     -0.539786
H       2.841387     -0.331133     -1.344615
H      -1.476328     -1.637412      0.199878
H       1.079555     -2.173375     -0.200050
H       3.115441     -0.350871      0.389033
H      -0.111312      1.852904      0.022738
