15
Extracted from Q-Chem output
C      -2.081903      0.258779      0.004499
C      -0.756332     -0.433072     -0.015865
N       0.300332      0.061183      0.795363
C       1.363794     -0.813160      0.676066
C       1.919671     -0.339832     -0.529545
N       1.766492      1.108337     -0.529652
C       0.785540      1.289582      0.245912
H      -2.672457     -0.081326     -0.847203
H      -2.652775      0.034245      0.911891
H      -1.979647      1.342840     -0.069931
H       0.703952     -0.563006     -1.144017
H      -0.796802     -1.519902     -0.036127
H       1.192811     -1.848976      0.933934
H       2.781976     -0.741737     -1.045298
H       0.287552      2.227465      0.447067
