13
Extracted from Q-Chem output
C      -0.945818     -0.920603      0.059301
C      -0.029896      0.230422     -0.103009
O       1.209673      0.029511     -0.627958
C       1.923330     -1.124567     -0.500828
O       1.694332     -2.016893      0.244763
C      -0.332046      1.537141      0.175073
C      -1.605678      1.825265      0.696279
H      -0.890032     -1.574824     -0.812344
H      -1.946529     -0.519410      0.203400
H      -0.663938     -1.512276      0.930123
H       0.469132      2.255822     -0.006608
H       2.777094     -1.064736     -1.186039
H      -1.621220      2.885564      1.000283
