13
Extracted from Q-Chem output
C      -0.992860     -1.161838      0.055370
C      -0.262565      0.103744     -0.244280
O       0.893904     -0.017279     -0.984924
C       1.942505     -0.714906     -0.491096
O       2.024040     -1.150009      0.612806
C      -0.660465      1.371582      0.116557
C      -0.873777      2.643833     -0.037307
H      -1.266350     -1.623373     -0.897894
H      -1.906156     -0.944385      0.604865
H      -0.386338     -1.872708      0.616532
H      -0.504604      0.854268      1.161945
H       2.710371     -0.791086     -1.269576
H      -0.696633      3.318475      0.798192
