15
Extracted from Q-Chem output
O      -2.269131      0.311644      0.904627
C      -1.056312     -0.277753      0.543362
C      -0.662209     -0.337068     -0.952561
C       0.761063      0.003220     -0.512540
C       2.373383     -0.244199     -1.441229
O       1.563715      0.880483     -1.261124
C       0.264374      0.464912      0.857315
H      -2.311872      1.195660      0.532891
H      -1.063771     -1.272548      0.989720
H      -1.084092      0.503734     -1.507897
H      -0.843090     -1.261491     -1.497212
H       1.425651     -0.928770     -0.345450
H       1.881631     -0.817441     -2.270997
H       0.128719      1.548557      0.837103
H       0.828069      0.184032      1.744002
