15
Extracted from Q-Chem output
C      -1.642027     -0.150772     -0.604772
N      -0.573482     -0.070208      0.360196
C      -0.549650     -0.556908      1.576926
N       0.565497     -0.334236      2.279689
C       1.429693      0.372473      1.508358
C       1.496782      0.099972     -1.019345
C       0.717927      0.600623      0.186163
H      -1.315020     -0.690789     -1.495029
H      -2.492107     -0.674850     -0.169918
H      -1.962389      0.849606     -0.901029
H      -1.402660     -1.105016      1.969130
H       2.462639      0.600920     -1.043102
H       1.675242     -0.973739     -0.937749
H       0.974974      0.301712     -1.956991
H       0.539576      1.681000      0.109306
