15
Extracted from Q-Chem output
C      -2.376156     -0.149381     -0.504042
C      -0.941657     -0.297043     -0.013497
C       0.032161      0.553120     -0.821222
C       1.485973      0.577342     -0.505244
O       1.701424     -0.211867      0.538638
C       2.988646     -0.244008      1.074821
O       3.666354      0.704367      1.237194
H      -2.714922      0.886962     -0.429904
H      -3.060364     -0.764441      0.082564
H      -2.470606     -0.452154     -1.549868
H      -0.637933     -1.345940     -0.066523
H      -0.880072     -0.018543      1.041729
H      -0.016452      0.322743     -1.894165
H      -0.243314      1.618465     -0.795621
H       3.222244     -1.275809      1.365373
