15
smiles: [C:1]([C:2](=[O:3])[H:10])([C:7](=[O:6])[H:15])([H:8])[H:9].[C:4](=[C:5]([H:13])[H:14])([H:11])[H:12]
C       -1.66206700       0.00778000       0.67258700
C       -1.51351800       0.31180600      -0.79803500
O       -1.60896000       1.40980800      -1.26488900
C        1.66804500       0.95493000      -0.41684000
C        2.12707000      -0.25883100      -0.66863400
O       -0.01261600      -0.77750700       2.21736600
C       -0.60200300      -0.93480800       1.18755200
H       -1.69200700       0.92325700       1.26044900
H       -2.62086200      -0.51883700       0.78143600
H       -1.31679600      -0.56461100      -1.45107500
H        1.51075400       1.30444800       0.59725300
H        1.43053800       1.65063600      -1.21353000
H        2.28436300      -0.60835500      -1.68272400
H        2.36458400      -0.95452100       0.12806500
H       -0.39627500      -1.81861800       0.54734800
