15
Extracted from Q-Chem output
C      -1.321363     -1.012238      0.060542
C      -0.079689     -0.149956      0.222587
C       1.079886     -0.558540     -0.704308
O       2.221386      0.205519     -0.445875
C      -0.341018      1.394546      0.214766
N       0.262782      0.338087      1.451867
H      -2.116777     -0.659654      0.716480
H      -1.677574     -1.017802     -0.972366
H      -1.085704     -2.041097      0.338984
H       1.267216     -1.629317     -0.539906
H       0.803374     -0.429615     -1.754417
H       2.166050      0.415162      0.500808
H      -1.404498      1.585182      0.122446
H       0.339534      1.874659     -0.481362
H      -0.049670      1.789466      1.241907
