11
Extracted from Q-Chem output
O       2.092917     -0.423070     -0.753705
C       0.873466     -0.521673     -0.345604
O       0.035413     -1.578820     -0.221953
C      -1.156094     -1.018504      0.170337
C      -1.191632      0.314172      0.130098
C       0.100717      0.883072     -0.360084
C       1.206881      0.552603      0.510518
H      -1.911880     -1.729036      0.464656
H      -2.057174      0.905009      0.388780
H       0.119934      1.661050     -1.119577
H       1.951961      0.858130      1.222624
