10
smiles: [C:1]([N:2]=[N+:6]=[N-:5])([H:7])([H:8])[H:9].[C:3](#[N:4])[H:10]
C       -1.26298700      -0.62925800       0.27437000
N        0.06457000      -0.48855200      -0.32714500
C        1.57253100       2.23091200       0.44012200
N        1.99436300       3.22852600       0.80719300
N        0.87221100      -2.26566200      -1.62119600
N        0.43658600      -1.44451300      -0.99158200
H       -1.30204100      -1.47158100       0.97034100
H       -2.03796800      -0.75676800      -0.48620900
H       -1.45766200       0.28770900       0.82336600
H        1.17879100       1.29891600       0.09713400
