14
Extracted from Q-Chem output
C      -1.234521     -0.999458     -0.669402
C      -1.535384      0.487289     -0.626007
C      -0.171178     -0.018788     -0.341879
C       0.690909      0.111147      0.899721
C       1.821650      0.347380     -0.110763
O       0.917129      0.227078     -1.222784
H      -1.185710     -1.466239     -1.644782
H      -1.616968     -1.629692      0.123992
H      -2.125698      0.874263      0.195279
H      -1.679299      0.988806     -1.574437
H       0.778993     -0.792873      1.499901
H       0.454142      0.959527      1.539830
H       2.289479      1.334050     -0.079247
H       2.596457     -0.422490     -0.140281
