12
Extracted from Q-Chem output
O       1.990775     -0.380833      0.749055
C       0.756180     -0.147894      0.330073
C      -0.557525     -0.459685      0.972267
C      -1.209239      0.316468     -0.215556
C       0.203633      0.443705     -0.798679
O       0.732455      1.016902     -1.889817
H       2.603851      0.107519      0.185649
H       0.561116     -0.367087     -1.571440
H      -0.817057     -1.515902      1.055194
H      -0.688303      0.018666      1.945376
H      -1.635319      1.273017      0.086495
H      -1.930807     -0.233370     -0.818321
