13
smiles: [C:1]([H:6])([H:7])([H:8])[H:9].[C:2]1(=[O:3])[C:4]([H:10])([H:11])[C:5]1([H:12])[H:13]
C       -2.00294400      -0.71869600       0.80487500
C        0.73286400       0.69017100      -1.23141400
O        0.07111300       1.01426800      -2.16588500
C        1.49972100      -0.36231100      -0.56271800
C        1.33776600       1.06646600       0.04765200
H       -1.23465400      -0.59724400       1.56696300
H       -1.87891700      -1.68221100       0.31286300
H       -2.98611700      -0.67368400       1.27095000
H       -1.91195500       0.07902400       0.06925100
H        0.96322200      -1.17528800      -0.08755100
H        2.47183400      -0.63009100      -0.95996500
H        0.69697300       1.17214900       0.91518400
H        2.20723900       1.71340400       0.04067200
