12
Extracted from Q-Chem output
N      -1.822975      0.396553     -0.337031
C      -0.527889      0.032669     -0.101609
C       0.582218      1.037735      0.027377
N       1.805726      0.279806      0.213671
C       1.454460     -0.953814      0.185869
C       0.033225     -1.191670     -0.005144
H      -2.099715      1.329292     -0.089806
H      -2.536579     -0.298875     -0.212910
H       0.427379      1.710464      0.877312
H       0.660100      1.660539     -0.868966
H       2.194551     -1.740496      0.305684
H      -0.456727     -2.152746     -0.058510
