12
Extracted from Q-Chem output
N      -1.920127      0.338039     -0.285327
C      -0.571976      0.098687     -0.054579
C       0.416409      1.067461      0.159233
N       1.704749      0.411736      0.338190
C       1.433311     -0.889406      0.143439
C       0.081683     -1.134233     -0.058909
H      -2.279016      1.181979      0.128238
H      -2.520894     -0.448243     -0.104769
H       0.308352      2.092277      0.482272
H       1.391551      1.044745     -0.684690
H       2.240733     -1.607962      0.126574
H      -0.376487     -2.099444     -0.223572
