15
Extracted from Q-Chem output
N       2.959095     -0.304221     -0.133969
C       1.936180     -0.118683      0.836309
C       0.906498      0.678491      0.704597
N      -0.028350      1.459268      0.606061
C      -1.324236     -0.275949     -0.665254
C      -1.281147      1.093317     -0.062108
C      -2.216624     -1.199406     -0.347906
H       3.874442     -0.136138      0.261139
H       2.838435      0.306533     -0.928762
H       1.979197     -0.754926      1.711325
H      -0.563256     -0.498637     -1.409198
H      -2.078933      1.215284      0.673930
H      -1.449610      1.854578     -0.829349
H      -2.218067     -2.173173     -0.822213
H      -2.982582     -1.013794      0.398217
