14
Extracted from Q-Chem output
C       2.589978     -0.361255     -0.430078
C       1.354592     -0.044861      0.090754
C       0.297993      0.648863      0.342670
C      -1.057333      0.596653     -0.223446
C      -1.677616     -0.795782     -0.217840
O      -1.963273      1.483510      0.414993
H       3.135286     -1.221168     -0.064617
H       2.061440     -0.161170      1.025004
H       3.079736      0.277557     -1.158821
H      -0.930807      0.920025     -1.273364
H      -1.720165     -1.182587      0.800952
H      -2.694731     -0.740201     -0.605890
H      -1.093167     -1.478279     -0.835444
H      -1.435249      2.089736      0.938515
