13
Extracted from Q-Chem output
C      -1.869925     -0.167818      0.196486
C      -0.551761      0.577519      0.019617
C       0.440245     -0.020337     -0.912971
C       1.533844     -0.206177     -0.176118
O       2.731539     -0.706668     -0.486595
N       1.321274      0.220749      1.165998
N       0.164658      0.653796      1.300058
H      -2.478024      0.318374      0.958821
H      -1.686177     -1.199665      0.498056
H      -2.424875     -0.175894     -0.741924
H       0.290380     -0.244850     -1.955819
H       3.272439     -0.688681      0.309950
H      -0.766160      1.623331     -0.239390
