17
Extracted from Q-Chem output
C       2.011857     -0.666361      0.462994
C       0.797495     -0.006761     -0.119636
C       0.866586      1.077242     -0.882275
C      -1.902758      1.301862      0.669701
C      -1.770953      0.066223      0.214167
C      -0.504748     -0.748932      0.130354
O      -0.639130     -1.786330     -0.839561
H       2.052977     -1.716066      0.161745
H       2.930864     -0.175489      0.143820
H       1.970504     -0.647157      1.555859
H      -1.052771      1.891477      0.992695
H      -0.018081      1.542035     -1.299444
H       1.820742      1.537060     -1.112804
H      -2.879383      1.765105      0.739844
H      -2.653690     -0.492848     -0.085707
H      -0.412080     -1.292023      1.077328
H      -0.561661     -1.380464     -1.706926
