17
Extracted from Q-Chem output
C       1.983891     -0.507803      0.619879
C       0.705056     -0.134570     -0.067460
C       0.525822      1.078774     -0.784243
C      -1.499188      1.347287      0.270438
C      -1.670723      0.044028      0.406224
C      -0.540138     -0.946218      0.024557
O      -0.927770     -1.631508     -1.167153
H       2.556379     -1.218340      0.017572
H       2.620562      0.364644      0.784633
H       1.793611     -0.976104      1.587824
H       0.165700      0.923957      0.465840
H      -0.120862      1.177110     -1.642757
H       1.291368      1.845508     -0.701935
H      -2.307181      2.066661      0.373231
H      -2.589632     -0.449943      0.717755
H      -0.421262     -1.726786      0.780036
H      -1.520216     -1.059643     -1.660135
