6
Extracted from Q-Chem output
O       0.150051      1.903013     -0.492478
C      -0.315618      0.913434     -0.235731
C      -1.278209     -0.048164      0.012507
N      -1.225973     -1.196876      0.309177
C       0.971780     -1.228679      0.318005
N       1.697401     -0.341841      0.089471
