14
Extracted from Q-Chem output
C       0.108542      1.612369      0.975242
C       0.354160      0.160957      0.969638
C      -0.493506     -1.308026     -0.368408
C      -1.662142     -0.496830     -0.631604
N      -2.551770      0.204001     -0.828454
C       1.048814     -0.474148     -0.051876
C       2.077825     -0.458241     -0.838843
H       0.952060      2.129956      0.512460
H      -0.782284      1.826666      0.366003
H      -0.094648      1.978774      1.981741
H      -0.092969     -0.436262      1.758149
H      -0.166127     -1.779018     -1.289311
H      -0.694049     -2.060815      0.389735
H       2.028777     -0.902321     -1.829778
