19
Extracted from Q-Chem output
C      -2.150035      0.362670      1.681560
O      -0.316925     -0.772995      0.693316
C      -0.165549      0.074931     -0.333126
C      -0.490288      1.464562      0.126061
C       1.310042      0.114105     -0.846328
C       1.733519     -1.286657     -1.281063
O       1.756496     -2.188226     -0.212827
H      -2.802062      1.218151      1.852889
H      -1.506046      0.106275      2.507177
H      -2.622427     -0.479909      1.200809
H      -0.799287     -0.165531     -1.212437
H       0.147798      1.830269      0.929637
H      -1.494612      1.106174      0.757892
H      -0.768118      2.236425     -0.594228
H       1.959794      0.446599     -0.032367
H       1.407710      0.809513     -1.684796
H       1.062015     -1.630187     -2.084008
H       2.743019     -1.239932     -1.700746
H       0.963539     -1.979815      0.320582
