15
Extracted from Q-Chem output
C      -2.099543     -0.030535     -0.299131
C      -0.256702      1.061553      0.040429
O      -0.241609      1.153357      1.371638
C       0.644888      0.003720     -0.487285
C       2.061734     -0.007492     -0.066622
N       1.126668     -0.974758      0.499966
H      -2.956651      0.455786      0.164211
H      -2.307013     -0.345622     -1.321183
H      -1.739831     -0.851329      0.313133
H      -1.349583      1.108742     -0.476791
H       0.124126      0.320619      1.731130
H       0.426691     -0.341592     -1.490673
H       2.417469      0.744912      0.627830
H       2.797721     -0.355810     -0.782012
H       1.240447     -1.898588      0.106836
