13
Extracted from Q-Chem output
N       1.593165      0.826395      0.907947
C       1.119957      0.021578     -0.012333
C       0.080359     -1.030361      0.474377
C      -1.200039     -0.496016     -0.220737
C      -0.702946      0.886111     -0.352993
O       1.277363      0.042731     -1.279206
H       2.237105      1.474116      0.451991
H       0.344540     -2.022650      0.118573
H      -0.017277     -1.001350      1.555905
H      -2.091389     -0.555151      0.404055
H      -1.364916     -0.959321     -1.188694
H      -0.718284      1.517632      0.525078
H      -0.539935      1.364531     -1.307859
