16
Extracted from Q-Chem output
C      -2.395741     -0.626666     -0.456654
C      -0.892111     -0.462046     -0.455328
O      -0.478511      0.873013     -0.479843
C      -0.187169     -0.588086      0.812072
N       1.860821      0.435182      0.967809
C       2.411747      0.988584     -0.054246
O       1.790532      1.261797     -1.143788
H      -2.687018     -1.675345     -0.362198
H      -2.786811     -0.239004     -1.399103
H      -2.841240     -0.054383      0.358341
H      -0.434320     -1.065224     -1.250277
H       0.693607      1.068249     -0.934568
H      -0.623566     -0.096555      1.669396
H       0.564718     -1.335908      0.998179
H       2.505568      0.281729      1.732503
H       3.472802      1.264568     -0.047806
