10
Extracted from Q-Chem output
N       1.762447      0.087866     -0.502798
C       0.446427      0.031602     -0.073598
N      -0.285807     -0.987038     -0.222819
N      -1.593411     -0.945522      0.186019
C      -0.537313      2.161721      0.943676
N      -0.033652      1.222481      0.465919
H       2.379822      0.588649      0.116840
H       2.113309     -0.822871     -0.755070
H      -2.025480     -0.028958      0.130806
H      -2.120295     -1.631358     -0.329480
