12
Extracted from Q-Chem output
O       2.511991     -0.170382     -0.786738
C       1.396538     -0.436416     -0.819278
C       0.327802      0.201564      0.671579
C      -0.517325      1.275409      0.080095
N      -1.172286      0.266404      0.871890
C      -0.857376     -0.967214      0.248680
O      -0.881082     -1.224106     -1.008110
H       0.301779     -0.973986     -1.315724
H       0.931210      0.314451      1.562618
H      -0.658356      1.274361     -0.998216
H      -0.512397      2.247149      0.556624
H      -0.900945     -1.792865      0.962153
