14
smiles: [C:1]([C:2](=[O:3])[H:10])([H:7])([H:8])[H:9].[C:4](=[O:5])([C:6]([H:12])([H:13])[H:14])[H:11]
C       -2.39966800      -0.24251100       0.40482500
C       -1.21839100      -1.09684000       0.05704200
O       -0.48267200      -1.60176500       0.85921400
C        1.43070100       1.44355400      -0.62543400
O        0.25890700       1.33573600      -0.85993300
C        2.26870600       0.38716100       0.02899500
H       -3.30463000      -0.67989600      -0.02480200
H       -2.50409700      -0.14803500       1.48398500
H       -2.27953400       0.74486100      -0.04903900
H       -1.04623000      -1.24898400      -1.02983500
H        1.96995400       2.37589000      -0.89748500
H        2.71821600       0.79247000       0.93925300
H        3.09117300       0.11318600      -0.63695100
H        1.66885700      -0.48962000       0.26500500
