14
Extracted from Q-Chem output
C      -1.765754     -0.130224      0.803823
C      -0.858142     -0.428705     -0.356873
O       0.171304     -1.193021     -0.182037
C       0.945292      0.272794     -0.975799
O       1.153268      0.167115     -2.134202
C       1.834748      0.648270      0.171462
H      -2.330384     -1.044300      1.010271
H      -1.189024      0.112631      1.695639
H      -2.472251      0.668633      0.577660
H      -1.352530     -0.448742     -1.342332
H      -0.230462      0.801898     -0.647337
H       1.298955      0.650509      1.115133
H       2.239525      1.638412     -0.040272
H       2.647911     -0.074054      0.217119
