14
Extracted from Q-Chem output
O       1.974922      1.542054      0.071950
N       1.826043      0.197194     -0.296759
C       0.606970     -0.113649     -0.326608
C      -0.084030     -1.428801     -0.569228
C      -1.318182     -0.822185      0.155239
C      -0.681388      0.583015      0.059681
O      -0.696431      1.329603      1.241367
H       2.926393      1.655191      0.103589
H       0.377606     -2.307405     -0.122174
H      -0.254925     -1.617980     -1.630143
H      -1.372341     -1.131881      1.197945
H      -2.288943     -0.952066     -0.318694
H      -1.083562      1.153711     -0.788848
H       0.067869      1.913197      1.222680
