13
Extracted from Q-Chem output
C      -2.364824     -0.403098      0.501234
C      -1.391300      0.238076     -0.075874
C      -0.399072      0.855290     -0.649734
C       0.947686      0.253445     -0.852877
C       1.861378      0.077220      0.301880
N       1.251255     -1.074236     -0.352239
H      -0.545441      1.871873     -1.003385
H      -2.509908     -0.354732      1.574797
H      -3.065231     -0.994929     -0.077240
H       1.388737      0.471298     -1.820572
H       1.485425      0.382255      1.272508
H       2.932471      0.173265      0.166100
H       0.472033     -1.426187      0.193914
