17
Extracted from Q-Chem output
C      -1.205133     -1.414143      0.091569
C      -0.347816     -0.730896     -0.947234
C      -0.202798      0.751691     -0.908929
C      -0.418911      1.572531      0.207344
C       1.137526     -0.591437     -0.705070
C       1.625165     -0.384580      0.539740
C       1.538015      0.374054      1.540507
H      -2.259818     -1.193410     -0.084333
H      -1.067818     -2.495298      0.039900
H      -0.952000     -1.095366      1.102484
H      -0.548933     -1.112308     -1.946295
H       0.118699      1.217511     -1.832458
H       0.714348      1.310007      1.019487
H      -0.388941      2.642263      0.028943
H      -1.163085      1.266828      0.937186
H       1.789054     -0.591278     -1.569139
H       1.696476      0.381228      2.603734
