16
Extracted from Q-Chem output
C      -2.210008     -0.835137      0.130385
O      -0.941175     -0.499592      0.596716
C      -0.118669      0.807272     -0.227663
C       0.453757      1.821631      0.526188
C       0.809071     -0.138868     -0.714192
C       1.933267     -0.721778      0.043018
H      -2.995344     -0.331782      0.710568
H      -2.381674     -1.915172      0.204433
H      -2.355466     -0.552720     -0.927766
H      -0.903644      1.095087     -0.922760
H       1.353554      1.659702      1.100360
H      -0.015656      2.793503      0.594116
H       0.698628     -0.475475     -1.743059
H       1.796029     -1.806727      0.060689
H       1.983317     -0.366654      1.068051
H       2.881790     -0.539808     -0.471019
