15
Extracted from Q-Chem output
C      -0.498524     -1.594955      0.687163
C      -0.470754     -0.429767     -0.291849
O      -1.318626     -0.668729     -1.399174
C      -0.778709      0.854184      0.294317
O       0.899959      1.935610      0.188503
C       0.970398     -0.219174     -0.827753
C       1.589966      0.895784     -0.544500
H      -1.523464     -1.803347      1.001570
H       0.116855     -1.385757      1.564414
H      -0.093924     -2.474765      0.188336
H      -0.728837     -0.985101     -2.094260
H      -0.813555      0.982944      1.368439
H      -1.307081      1.582351     -0.305196
H       1.354546      2.123317      1.021515
H       2.579310      1.206763     -0.854980
