17
smiles: [C:1]([C@@:2]1([H:11])[C:3]([H:12])([H:13])[C@:4]2([C-:5]=[O+:6]2)[C:7]1([H:16])[H:17])([H:8])([H:9])[H:10].[H:14][H:15]
C       -2.32188400      -0.38964000       0.09950500
C       -0.97553600       0.18650700      -0.28170500
C       -0.30528800       1.18285400       0.70633300
C        0.97857800       0.43222800       0.45082200
C        2.36018700       0.92494500       0.27257400
O        2.08532100       0.33151300       1.38573400
C        0.26786900      -0.74132800      -0.17723000
H       -2.28585100      -0.83994100       1.09476700
H       -3.09273700       0.38403400       0.10920500
H       -2.63198400      -1.16284000      -0.60680400
H       -1.02083400       0.63106600      -1.27746700
H       -0.32561300       2.24333800       0.45460100
H       -0.66466900       1.04590700       1.72966100
H        3.86947600      -1.07130500      -2.26074600
H        3.73825100      -0.52909100      -1.76764900
H        0.10938300      -1.55353800       0.53728300
H        0.68345200      -1.14647100      -1.09983300
