17
Extracted from Q-Chem output
C      -2.277158     -0.307803      0.169517
C      -0.929642      0.136389     -0.356844
C      -0.073243      1.075968      0.530680
C       1.125913      0.218520      0.174833
C       2.480628      0.675979     -0.132380
O       2.246312      0.010717      1.036037
C       0.231669     -0.893590     -0.352159
H      -2.180479     -0.742638      1.167798
H      -2.969100      0.534618      0.238159
H      -2.729059     -1.060003     -0.480946
H      -1.036693      0.566664     -1.354934
H      -0.027103      2.131993      0.268765
H      -0.320672      0.972870      1.590109
H       2.774449     -0.508063     -1.124356
H       3.270912      0.268543     -0.953543
H       0.085706     -1.659448      0.414454
H       0.491826     -1.371361     -1.295294
