15
Extracted from Q-Chem output
C      -2.346066     -0.094543     -0.035360
N      -1.033039     -0.182260     -0.614886
C       0.095824     -0.158978      0.110431
N       0.291131     -0.115720      1.363836
C       1.356225     -0.200978     -0.787898
O       1.208061      0.027161     -2.071105
C       2.435062      0.574127     -0.251493
H      -3.090119     -0.198276     -0.822438
H      -2.508159      0.863634      0.470211
H      -2.507958     -0.897848      0.688671
H      -0.881007     -0.083679     -1.608874
H      -0.553325     -0.061034      1.922010
H       1.763833     -1.233692     -0.479171
H       3.347069      0.591894     -0.837940
H       2.344269      1.196624      0.634959
