17
smiles: [C:1]([C@@:2]([O:3][H:12])(/[C:4](=[C:5](\[C:6](=[O:7])[H:17])[H:15])[H:14])[H:11])([H:8])([H:9])[H:10].[H:13][H:16]
C       -1.79738000       0.02851800       0.10851500
C       -0.81058200      -0.50797600      -0.93264700
O       -0.62968500       0.37574600      -2.00258400
C        0.45822800      -0.94256500      -0.24006700
C        1.56971100      -0.25714600       0.05045100
C        1.84767200       1.16481700      -0.19393300
O        1.08566800       1.98792300      -0.65196200
H       -1.98685100      -0.70258500       0.89738000
H       -1.40098600       0.93702300       0.56573100
H       -2.74041600       0.26628500      -0.38383600
H       -1.24065400      -1.40931200      -1.37932000
H       -0.18632900       1.16758300      -1.66003000
H        0.19095500      -0.35282900       2.82394800
H        0.44082700      -1.97727900       0.09547300
H        2.37299000      -0.78093400       0.55857200
H        0.05785300      -0.46496000       3.54796900
H        2.86031100       1.48700800       0.11221300
