17
Extracted from Q-Chem output
C      -2.166795     -0.636792     -0.021802
C      -0.818826     -0.043606     -0.379701
O      -0.928954      1.341357     -0.391168
C       0.280392     -0.499142      0.607846
C       1.725519     -0.311789      0.295969
C       2.217099      0.754400     -0.457744
O       1.583830      1.705024     -0.955564
H      -2.140142     -1.728111     -0.026324
H      -2.490185     -0.292008      0.964657
H      -2.908358     -0.303581     -0.746371
H      -0.478970     -0.435625     -1.349014
H      -0.040432      1.682535     -0.679800
H      -0.248858      0.206038      1.610731
H       0.110546     -1.460685      1.090241
H       2.407523     -1.042378      0.704351
H       0.643749      0.351128      1.445683
H       3.309213      0.720869     -0.619180
