12
Extracted from Q-Chem output
O       2.141013     -0.634941      0.741384
C       1.158375     -0.160305      0.243240
C      -0.058932     -0.973048     -0.135018
C      -1.384735     -0.264754      0.068835
C       0.126533      2.087416     -0.396624
C       1.111761      1.308253     -0.081140
H      -0.001740     -1.904356      0.428193
H       0.071583     -1.227160     -1.192857
H      -2.205410     -0.861500     -0.329271
H      -1.580565     -0.068719      1.123564
H      -1.421642      0.697295     -0.463498
H       2.051771      1.861570     -0.007625
