12
Extracted from Q-Chem output
O       2.352180     -0.690271      0.289343
C       1.262703     -0.227982      0.099854
C      -0.009246     -1.051666     -0.083269
C      -1.214422     -0.188812      0.095632
C      -0.273742      1.681199     -0.156390
C       0.952322      1.219472     -0.031045
H       0.016049     -1.878524      0.627259
H       0.034930     -1.481405     -1.086457
H      -2.036191     -0.394326     -0.590648
H      -1.573830     -0.113078      1.119598
H      -1.304327      1.150259     -0.250706
H       1.784494      1.914167     -0.033435
