16
Extracted from Q-Chem output
C       2.033151     -0.373807     -0.040910
C       0.581576     -0.005801      0.003763
C      -0.526345     -1.028538      0.117548
C      -1.694399     -0.099370     -0.088552
C      -1.327497      1.123274      0.491462
C       0.056049      1.181453      0.543996
H       2.351867     -0.822500      0.903811
H       2.654373      0.504407     -0.219803
H       2.231458     -1.097320     -0.832974
H      -0.045836      0.222202     -1.417443
H      -0.458741     -1.849440     -0.595611
H      -0.548387     -1.428017      1.138683
H      -2.717641     -0.440715     -0.189717
H      -0.992118      0.170753     -1.447384
H      -2.002537      1.946582      0.682642
H       0.639485      2.061383      0.781193
