14
smiles: [C:1](=[C:2]([H:11])[H:12])([H:9])[H:10].[N-:3]([C+:4]([N:5]([H:8])[H:14])[C:6]#[N:7])[H:13]
C       -2.32876700       0.08415600      -0.39091100
C       -2.10162100      -0.86067200       0.50530900
N        0.94784100       0.90416100       0.79186200
C        1.60065400       0.34565600      -0.14010500
N        1.06345400      -0.59796300      -0.95961400
C        3.00905200       0.63321900      -0.41026000
N        4.11048700       0.88935400      -0.60196800
H        0.07027600      -0.73845000      -0.89380900
H       -1.77348400       1.01519500      -0.38969900
H       -3.07991700      -0.03468100      -1.16352300
H       -2.65695300      -1.79168400       0.50397700
H       -1.35046000      -0.74193900       1.27791600
H        1.52323900       1.54633700       1.32277700
H        1.52409400      -0.84368300      -1.81544600
