14
Extracted from Q-Chem output
C      -1.629218     -0.163346     -0.688851
C      -1.287049     -0.173401      0.670792
N       0.599900     -0.376225      0.924978
C       1.263547     -0.108141     -0.172565
N       0.866392     -0.669088     -1.303332
C       2.326650      0.887714     -0.176285
N       3.177038      1.658794     -0.165009
H      -0.343730     -0.563884     -1.239424
H      -1.819586      0.792540     -1.164465
H      -2.207919     -0.999752     -1.066778
H      -1.545040     -1.038763      1.265642
H      -1.308552      0.759076      1.223785
H       0.897793      0.189050      1.710326
H       1.298676     -0.279942     -2.130941
