19
Extracted from Q-Chem output
C      -2.401148     -0.903799     -0.353241
C      -1.113333     -0.156516     -0.023613
C      -1.283816      0.703309      1.241111
C       0.017685     -1.104484      0.097462
O       1.250212     -0.696165      0.059058
C       1.733322      0.502637     -0.084160
C       3.203495      0.615510     -0.260808
H      -3.241478     -0.212111     -0.435743
H      -2.314387     -1.448965     -1.294558
H      -2.640266     -1.623793      0.433897
H      -0.884824      0.526328     -0.861173
H      -1.670828      0.090175      2.057468
H      -1.985981      1.521808      1.065535
H      -0.337973      1.137136      1.572734
H      -0.075761     -2.168201      0.255537
H       1.045791      1.323222     -0.235049
H       3.709175     -0.213844      0.236972
H       3.574949      1.545224      0.175122
H       3.512852      0.605621     -1.314370
