19
Extracted from Q-Chem output
C      -1.989615     -1.011711     -0.514811
C      -0.877409     -0.133056      0.075234
C      -1.494591      0.971695      0.939022
C       0.120937     -0.997096      0.783708
O       1.406203     -1.090831      0.406563
C       1.867469      0.163237      0.484877
C       2.741097      0.640776     -0.607909
H      -2.718245     -0.408362     -1.061790
H      -1.583631     -1.759955     -1.197215
H      -2.527975     -1.536526      0.279737
H      -0.328170      0.353621     -0.741177
H      -1.985232      0.544371      1.817780
H      -2.244994      1.536398      0.379223
H      -0.728754      1.665001      1.287820
H      -0.218957     -1.867839      1.337581
H       1.673570      0.692177      1.402791
H       2.189153      0.991502     -1.488555
H       3.373941     -0.187830     -0.945580
H       3.378227      1.458118     -0.268981
