12
Extracted from Q-Chem output
C       1.265374     -0.966812      0.098713
C       0.159436     -0.219686     -0.603611
C      -1.237658     -0.099450      0.056090
C      -0.330490      1.046644     -0.079514
N      -0.050203      2.251578      0.119612
H       1.186528     -2.041354     -0.078164
H       2.241872     -0.630431     -0.252890
H       1.225043     -0.794660      1.176265
H       0.137132     -0.324482     -1.684790
H      -1.363193     -0.540171      1.039742
H      -0.820480      2.722368      0.594370
H      -2.110356     -0.159470     -0.583913
