12
Extracted from Q-Chem output
O      -1.548550     -0.025118     -1.452443
C      -1.501372     -0.616881     -0.409632
C      -0.543407     -0.295396      0.706733
C       0.500242      0.729663      0.313436
C       1.545587      0.178405     -0.619725
O       1.659404     -0.983182     -0.898270
H      -2.203767     -1.449396     -0.202759
H      -0.080218     -1.232075      1.028919
H      -1.146338      0.052755      1.552606
H       0.042362      1.595486     -0.172594
H       1.029155      1.117054      1.191124
H       2.246902      0.928684     -1.037394
