8
Extracted from Q-Chem output
N       1.605984      0.289537     -0.454449
N       0.924790      1.113395      0.172349
C      -0.390255      0.709468      0.470865
C      -0.827721     -0.519439      0.254828
N      -1.174372     -1.671255      0.180282
H       2.531364      0.711891     -0.575808
H      -1.039395      1.449062      0.913674
H      -1.592419     -2.002295     -0.683112
