13
Extracted from Q-Chem output
N      -1.788356     -0.284351     -0.529064
C      -0.818559      0.505675      0.224633
C       0.536718     -0.146978      0.132501
N       0.713663     -1.499679      0.556082
C       1.555966      0.501609     -0.379837
N       2.463030      1.097289     -0.940698
H      -2.735276      0.000322     -0.321768
H      -1.640723     -0.173154     -1.523694
H      -1.141463      0.509925      1.271452
H      -0.746812      1.552758     -0.097011
H       3.069823      1.630888     -0.322479
H      -0.069328     -2.048227      0.220631
H       0.721576     -1.564173      1.566392
