12
Extracted from Q-Chem output
O       0.730984     -0.973953     -1.272089
C       0.624992     -0.502800     -0.005740
C      -0.694977      0.128965      0.355629
C      -1.245007      1.108751     -0.646005
O      -0.967949      1.114976     -1.818696
C       1.605866     -0.663651      0.873098
H       0.186355     -0.417975     -1.848551
H      -1.465561     -0.651334      0.441039
H      -0.639367      0.609347      1.332974
H      -1.979191      1.837051     -0.251483
H       1.490244     -0.336024      1.896125
H       2.529217     -1.143908      0.579774
