11
Extracted from Q-Chem output
N       1.660164      0.083712     -1.817160
C       0.853574     -0.041776     -0.964728
C       0.627171     -0.971553      0.334844
C      -0.688731     -0.446603      0.598443
C      -0.696357      1.005668      0.524115
O      -0.481257      0.724333     -0.881647
H       1.381447     -0.682447      1.065977
H       0.692795     -2.023066      0.078267
H      -1.612036     -0.998238      0.477096
H      -1.644924      1.516001      0.657123
H       0.140893      1.534616      0.979041
