14
smiles: [C:1]([C@@:2]1([H:11])[C:3]([H:12])([H:13])[N:4]1[H:14])([H:8])([H:9])[H:10].[C:5](=[O:6])=[O:7]
C       -1.52829800      -0.55089100      -0.45624600
C       -0.70200500       0.70092600      -0.53645800
C       -0.02678100       1.27191300       0.64576000
N        0.73927000       0.54606800      -0.36656300
C        2.18609800      -1.68477500       0.67314600
O        3.01864100      -1.53345900      -0.11484300
O        1.35370000      -1.83629500       1.46125100
H       -1.13343100      -1.21470200       0.31412800
H       -1.51075600      -1.08971300      -1.40582400
H       -2.56785100      -0.31770600      -0.21510500
H       -1.02684700       1.41997300      -1.28442300
H       -0.10713700       0.76693500       1.60208200
H        0.08199200       2.34922400       0.70936300
H        1.24769200       1.18958200      -0.95908900
