13
Extracted from Q-Chem output
O       1.059561      1.725861     -0.682730
C       1.700703      0.747194     -0.423530
C       1.180289     -0.482834      0.289556
C      -0.259877     -0.462883      0.671987
C      -1.943931      0.466353     -0.046202
N      -1.232301     -0.662252     -0.255016
H       2.771409      0.684627     -0.716511
H       1.828006     -0.642922      1.158511
H       1.385616     -1.323288     -0.392980
H      -0.551533     -0.390882      1.708239
H      -1.459031      1.412530     -0.224238
H      -3.010371      0.427735      0.169731
H      -1.422478     -1.462952     -0.840495
