11
Extracted from Q-Chem output
O       2.252181     -0.960742      0.799547
C       1.102432     -0.849940      0.458822
C       0.719548      0.365416     -0.532981
C      -0.286968      1.210877     -0.123058
N      -1.282282      0.406459      0.334124
C      -0.728085     -0.807213     -0.200372
N       0.000250     -1.595609      0.621558
H       1.464748      0.626986     -1.275124
H      -0.398779      2.286056     -0.225163
H      -1.654480      0.439757      1.276649
H      -1.192335     -1.125583     -1.135136
