19
smiles: [C:1]([C:2]([O:3][C:4](=[C:5]([H:14])[H:15])[H:13])([H:11])[H:12])([H:8])([H:9])[H:10].[C:6](=[C:7]([H:18])[H:19])([H:16])[H:17]
C        2.02804000       1.25211900      -0.18356100
C        1.57462600      -0.14267900      -0.54013500
O        0.64955600      -0.57668500       0.44539400
C        0.24325600      -1.86080700       0.33977300
C       -0.78957600      -2.34369000       1.01260400
C       -2.18297000       0.80360700      -0.91536300
C       -1.88241200       1.64459200       0.05915400
H        2.73290100       1.61957200      -0.93108000
H        1.17690800       1.93261400      -0.14482300
H        2.51950200       1.25840700       0.78991700
H        2.42711300      -0.83232700      -0.57286000
H        1.09175300      -0.15521600      -1.52454900
H        0.83979100      -2.48458500      -0.32430000
H       -1.04827900      -3.38791500       0.91682200
H       -1.37936900      -1.71577500       1.66746000
H       -1.76032100      -0.19387400      -0.95605900
H       -2.86427900       1.07681200      -1.71305100
H       -1.20107100       1.37145200       0.85683600
H       -2.30504800       2.64208300       0.09976000
