16
Extracted from Q-Chem output
C       1.938361     -1.140261      0.060421
C       1.384478     -0.034699     -0.412868
C      -0.083155      0.208535     -0.653081
C      -0.975581     -0.978441     -0.330271
C      -0.487014      1.472717      0.092828
C      -1.221886      1.473590      1.334982
N      -1.952338      1.754213      0.363257
H       3.009965     -1.210944      0.201243
H      -1.309365      1.348513      2.405627
H       1.354726     -2.015267      0.321758
H       2.032931      0.805053     -0.655838
H      -0.194950      0.437062     -1.721793
H      -2.018705     -0.741672     -0.540682
H      -0.695941     -1.846415     -0.928584
H      -0.904688     -1.257471      0.724882
H       0.105565      2.349602     -0.162826
