16
Extracted from Q-Chem output
C       1.481738     -0.540738      0.741018
C       1.141907      0.191250     -0.383534
C      -0.225235      0.105772     -1.021344
C      -1.100908     -1.091783     -0.741054
C      -0.220805      1.276124     -0.111305
C      -0.558339      1.101959      1.308707
N      -1.635176      1.576551      1.560493
H       2.466327     -0.426489      1.177009
H       0.211883      0.408320      1.866769
H       0.928689     -1.421067      1.040026
H       1.900171      0.791425     -0.870340
H      -0.238385      0.389730     -2.070421
H      -2.112968     -0.894517     -1.096834
H      -0.715479     -1.972380     -1.257309
H      -1.173727     -1.318666      0.321593
H      -0.173125      2.277257     -0.518406
