14
Extracted from Q-Chem output
C      -1.028335     -1.221276     -0.299859
C      -0.456753     -0.034351     -0.150457
N      -1.064953      1.106446      0.402664
O      -2.247502      0.825247      1.097997
C       0.921052      0.281057     -0.628260
C       2.103174     -0.225088      0.077310
O       1.682933     -0.777688     -1.156025
H      -2.020501     -1.417310      0.078456
H      -0.489203     -2.004526     -0.812176
H      -0.449994      1.578388      1.055164
H      -2.926447      1.278732      0.592498
H       1.012066      1.219499     -1.172504
H       3.034526      0.332916      0.044682
H       1.954242     -0.866073      0.941568
