14
Extracted from Q-Chem output
C      -1.368088     -0.720117     -0.895596
C      -0.410511     -0.212563     -0.000890
N      -0.649395      0.664292      1.040212
O      -1.994403      0.982648      1.003937
C       1.044547     -0.439214     -0.302485
C       2.018009      0.641074     -0.175038
O       1.956177     -0.412875      0.770383
H      -2.410338     -0.463252     -0.802035
H      -1.058772     -1.458849     -1.620289
H      -0.769968     -0.959399      0.821225
H      -2.143695      1.402459      1.855031
H       1.219911     -1.225449     -1.032250
H       2.896740      0.641732     -0.813033
H       1.677577      1.603650      0.191658
