10
Extracted from Q-Chem output
C       2.052829     -0.308109      0.396277
C       0.989692      0.162026     -0.031350
C       0.068859      1.212355     -0.389658
C      -1.167150      1.246727      0.093702
O      -1.876375      0.125980      0.428798
N      -1.311291     -1.005766     -0.022306
C      -0.121019     -0.901821     -0.455466
H       2.812911     -0.956405      0.768584
H      -1.769686      2.135993      0.217741
H       0.294764     -1.729027     -1.010382
