17
Extracted from Q-Chem output
C      -1.373560      1.752437      0.023082
C      -0.119256      0.951005     -0.097264
C       0.995209     -1.153329     -0.045931
C       2.287865     -0.553148     -0.426945
N      -0.077823     -0.372716      0.084174
C      -1.326380     -1.035339      0.462254
H      -1.842715      1.703022      1.013158
H      -2.145727      1.485673     -0.710032
H      -1.130843      2.800339     -0.152087
H       0.804512      1.425729     -0.380754
H       0.867319     -2.203097      0.153937
H       3.059156     -1.318067     -0.503759
H       2.227926     -0.030231     -1.394552
H       2.623451      0.201032      0.302604
H      -1.691428     -0.626356      1.402977
H      -1.144168     -2.099249      0.575390
H      -2.077347     -0.874102     -0.309425
