12
Extracted from Q-Chem output
O      -0.478369      1.027869     -2.032463
C      -0.053314      0.580195     -0.882535
C      -0.816117     -0.514377     -0.216266
C       0.011781     -0.720483      1.048641
C       1.094735      1.082537     -0.243244
C       1.105644      0.304345      0.883317
H       0.154064      1.722642     -2.283650
H      -1.846013     -0.203350     -0.026051
H      -0.866238     -1.394187     -0.861993
H      -0.561178     -0.549791      1.964558
H       0.423126     -1.731270      1.125386
H       1.861531      0.387854      1.663413
