12
Extracted from Q-Chem output
O      -0.569671      1.415533     -0.894727
C       0.078874      0.240514     -0.627648
C      -0.833599     -0.899259     -0.403672
C      -0.421559     -0.416002      0.938080
C       1.557591      0.176995     -0.981885
C       1.483998      0.251221      0.303700
H       0.102353      2.061735     -1.132386
H      -1.853052     -0.695599     -0.707384
H      -0.458306     -1.868023     -0.710203
H      -1.052262      0.320615      1.417385
H       0.117529     -1.083791      1.592874
H       1.868132      0.498348      1.275833
