10
Extracted from Q-Chem output
N      -1.584071      0.312225     -0.052795
C      -0.150005     -0.046976     -0.010139
N       0.137134     -1.319040     -0.067613
O       1.489281     -1.294360     -0.005844
C       1.877144      0.019760      0.084081
C       0.851164      0.922145      0.088181
H      -2.092311     -0.056286      0.749229
H      -2.033760     -0.014187     -0.906381
H       2.952233      0.119462      0.137824
H      -1.582697      1.334962     -0.024419
