12
Extracted from Q-Chem output
O       0.113913     -1.373634     -1.267092
C       0.072661     -0.402931     -0.292636
C      -1.140812     -0.073994      0.529991
C      -0.501000      0.974058     -0.331364
O       0.623445      1.540039      0.328273
C       1.296181      0.260143      0.316362
H      -0.068224     -2.224421     -0.862899
H      -2.063103     -0.475389      0.126131
H      -1.087819      0.007301      1.610548
H      -1.005021      1.546389     -1.097741
H       1.616170     -0.055542      1.313077
H       2.143612      0.277982     -0.372649
