12
Extracted from Q-Chem output
O       0.014009     -1.297618     -1.172419
C       0.037319     -0.431131     -0.109188
C      -1.445555      0.300727      0.742652
C      -0.574157      0.952783     -0.225110
O       0.591439      1.594909      0.305718
C       1.268329      0.338501      0.386156
H       0.119873     -2.198763     -0.860675
H      -2.215591     -0.204483      0.137392
H      -0.532509     -0.804744      0.883866
H      -0.919942      1.331563     -1.181263
H       1.618067      0.112523      1.395361
H       2.086230      0.266070     -0.335634
