14
Extracted from Q-Chem output
C      -1.034737     -1.286172     -0.323461
C      -0.766331      0.175694     -0.614304
C       0.500014      0.780803     -0.323798
O       0.003472      1.711587      1.058833
C       1.614166     -0.065911      0.194582
O       1.851732     -0.267049      1.355642
H      -2.107916     -1.459706     -0.229722
H      -0.584185     -1.607928      0.618941
H      -0.670828     -1.960609     -1.106701
H      -0.882817      1.098122      0.603491
H      -1.270447      0.582621     -1.485418
H       0.844318      1.583313     -0.970670
H       0.366027      1.249065      1.832802
H       2.205287     -0.552785     -0.605087
