12
Extracted from Q-Chem output
C      -1.902471      1.243975      0.624855
C      -0.971675      0.339858      0.358250
C       1.025582     -1.830039     -1.444402
O       1.078436     -1.504294     -0.176783
C       1.278395     -0.151998      0.088013
O       2.576370      0.103484      0.080605
N       0.386804      0.679498      0.360381
H      -1.635122      2.269301      0.847190
H      -2.949422      0.972723      0.621820
H      -1.246096     -0.687902      0.133351
H       0.857613     -2.927795     -1.391135
H       2.680449      1.040251      0.285563
