12
Extracted from Q-Chem output
C      -1.828835      0.844292      0.238996
C      -0.663736      0.195893      0.213888
C      -0.011125     -1.170338     -1.071647
O       1.263056     -1.197739     -0.514600
C       1.531638     -0.035611      0.077419
O       2.822191      0.176359      0.241564
N       0.597010      0.721378      0.487032
H      -1.854547      1.911136      0.410077
H      -2.756884      0.317406      0.074153
H      -0.746491     -0.941982      0.343487
H      -0.402384     -2.195601     -0.906656
H       2.915491      0.992449      0.745676
