15
smiles: [C:1](=[C:2]([C:6]#[C:7][H:15])[H:11])([H:8])[H:9].[C:3](=[C:4]=[C:5]([H:10])[H:14])([H:12])[H:13]
C       -0.59076500      -2.16247400       0.94735500
C       -0.96100800      -0.88741300       0.90873100
C        0.99241200       2.21433500       0.30771500
C        1.54504200       1.20054600      -0.28821700
C        2.09776500       0.18851300      -0.88702500
C       -1.80341500      -0.33411600      -0.10389900
C       -2.50899200       0.15309700      -0.94211200
H        0.05000700      -2.52876200       1.73908800
H       -0.91471200      -2.86930100       0.19363800
H        1.83778100      -0.82902000      -0.62032200
H       -0.62355900      -0.19719200       1.67531300
H        0.07840400       2.65388300      -0.07366500
H        1.43120600       2.64451300       1.20013300
H        2.83351000       0.33838600      -1.66826900
H       -3.13576300       0.57944500      -1.68912900
