15
Extracted from Q-Chem output
C       0.146334     -1.405516      0.511169
C      -0.580665     -0.230191      0.759068
C       0.540816      1.547377      0.178925
C       1.601175      0.940532     -0.400004
C       2.168457     -0.137425     -0.691811
C      -1.757888      0.045298     -0.013604
C      -2.742460      0.273234     -0.660365
H       0.640735     -1.876667      1.353543
H      -0.239643     -2.086778     -0.239165
H       1.280533     -0.970413     -0.178549
H      -0.604792      0.145784      1.774127
H      -0.215995      1.999998     -0.451042
H       0.677267      2.018483      1.146751
H       3.034461     -0.565314     -1.159098
H      -3.620316      0.465796     -1.230025
