10
Extracted from Q-Chem output
N       1.741030      0.530897     -0.363401
C       1.299832     -0.390752      0.369426
O      -0.009568     -0.635519      0.511193
C      -0.856951      0.224344     -0.227328
C      -3.292648     -0.451593      0.253871
N      -2.184610     -0.160139      0.049299
H       2.753262      0.563121     -0.342460
H       1.872605     -1.096121      0.971591
H      -0.658229      0.128820     -1.295935
H      -0.699787      1.261966      0.070959
