10
Extracted from Q-Chem output
O      -1.783433      0.314395      0.090220
C      -0.485106      0.670802     -0.011873
C       0.232780     -0.600425     -0.331016
C       1.651696     -0.565335     -0.004608
C       2.812971     -0.553174      0.276684
C      -2.633115      1.286920      0.302817
N      -3.446068      2.073832      0.488514
H       0.109704     -0.672620     -1.425307
H      -0.259427     -1.484419      0.089523
H       3.847843     -0.535714      0.526286
