17
smiles: [C:1](=[C:2]([H:11])[H:12])([H:8])[H:9].[C:3]1(=[C:6]=[C:7]([H:10])[H:17])[C:4]([H:13])([H:14])[C:5]1([H:15])[H:16]
C        3.25916700       0.14433300       0.35945300
C        2.07866000      -0.45033300       0.35254800
C       -1.53625000      -0.01533000      -0.20438900
C       -2.11651600      -0.99311100      -1.13505400
C       -2.07230400      -1.26274000       0.35772400
C       -0.97045700       1.12077500      -0.01613100
C       -0.39474800       2.27392700       0.17555800
H        3.86737600       0.21030900      -0.53549700
H        3.66731000       0.58850100       1.26017100
H        0.68483900       2.36995900       0.16134500
H        1.67048600      -0.89450100      -0.54816600
H        1.47034200      -0.51636800       1.24742500
H       -3.07623500      -0.75995300      -1.58095400
H       -1.44100400      -1.55219100      -1.77166200
H       -1.36527300      -2.00053100       0.71834900
H       -3.00240700      -1.21218200       0.91132700
H       -0.97968200       3.16879700       0.35378700
