17
Extracted from Q-Chem output
C       1.998160      0.677334      0.400847
C       1.245269     -0.469590      0.190081
C      -0.774024     -0.163977     -0.149611
C      -1.327006     -1.203394     -1.055756
C      -1.594367     -1.260442      0.428308
C      -0.874374      1.180732     -0.108254
C      -0.195851      2.232084      0.069203
H       2.635554      1.051497     -0.391782
H       2.294831      0.944624      1.408524
H       0.941132      1.779030      0.260103
H       1.356159     -0.987497     -0.754654
H       1.030285     -1.105003      1.040441
H      -2.133746     -0.920998     -1.719054
H      -0.639775     -1.935153     -1.463302
H      -1.084476     -2.029981      0.995331
H      -2.585348     -1.014338      0.786114
H      -0.336087      3.297406      0.096335
