8
Extracted from Q-Chem output
C       1.923428      1.682935     -0.626144
C       0.834006      1.188228     -0.587224
C      -1.342839     -1.480328      0.184261
C      -0.818927     -0.355575     -0.200739
N      -0.427580      0.733432     -0.590230
H       2.896696      2.110418     -0.652648
H      -1.681785     -1.599202      1.203882
H      -1.426397     -2.305405     -0.509122
