16
Extracted from Q-Chem output
C       2.367384     -0.121569     -0.230299
C       0.892854     -0.151991     -0.064983
C      -0.216127     -0.997818     -0.659249
N      -1.128294     -0.417471      0.373651
C      -2.316722      0.276190     -0.083127
C      -0.022021      0.349344      0.775247
O      -0.113276      1.239358      1.774391
H       2.814632     -1.103531     -0.047266
H       2.828981      0.580167      0.468234
H       2.659375      0.184190     -1.238608
H       0.732756      1.679382      1.883372
H      -0.524113     -0.739417     -1.676396
H      -0.119314     -2.082031     -0.561751
H      -2.774557      0.795124      0.759126
H      -2.103354      1.012131     -0.873105
H      -3.034723     -0.451478     -0.463930
