16
Extracted from Q-Chem output
C       2.635645      0.421952     -0.425622
C       1.541898      0.445229      0.355966
C       0.791500     -0.765441      0.389142
C      -0.690555     -0.633485      0.423066
C      -1.123119     -0.901319     -1.036243
C      -1.318444      0.660235      0.947031
H       3.148838      1.329079     -0.728208
H       2.987702     -0.523584     -0.820257
H       1.204484      1.390192      0.785879
H      -1.070022     -1.480751      1.005716
H      -0.754995     -0.115260     -1.699672
H      -2.213062     -0.907341     -1.090615
H      -0.744936     -1.857728     -1.394896
H      -1.103509      1.507084      0.290909
H      -2.404363      0.556737      1.005586
H      -0.959128      0.907094      1.948721
