13
Extracted from Q-Chem output
C       1.938093     -0.389365      0.433683
C       0.682357      0.148750      0.074781
O       0.730470      1.429965      0.186346
C      -0.524587     -0.516323     -0.422694
C      -1.826517     -0.014537      0.111080
N      -1.461777      0.223895     -1.263360
H       1.940410      1.082310      0.285706
H       2.280680     -1.344734      0.052462
H       2.161389     -0.226666      1.487531
H      -0.419004     -1.569349     -0.649996
H      -1.786092      0.810654      0.812247
H      -2.618596     -0.735728      0.270769
H      -1.121857      1.175151     -1.368533
