10
Extracted from Q-Chem output
O      -1.902948      0.015589      0.597804
C      -0.759351     -0.193942     -0.158771
C       0.375010      0.776758     -0.030907
C       1.459995      0.040387      0.151665
N       1.109054     -1.359818      0.218608
N      -0.114189     -1.505838      0.089613
H      -1.671074     -0.031146      1.528905
H       0.288037      1.847309     -0.127857
H       2.497658      0.317814      0.256316
H      -1.079044     -0.242816     -1.207984
