10
Extracted from Q-Chem output
O      -1.887943      0.369297      0.698767
C      -0.664329      0.034708      0.241836
C       0.454277      0.869143      0.083291
C       1.498034     -0.021526     -0.025512
N       1.087731     -1.303421      0.032802
N      -0.215657     -1.323790      0.235759
H      -2.338791     -0.434911      0.976543
H       0.464048      1.945450      0.062478
H       2.545254      0.195143     -0.179737
H      -0.739476     -0.665799     -0.808837
