15
Extracted from Q-Chem output
C       1.521250      0.244879     -1.075295
C       1.015147     -0.546253      0.099564
O       1.717622     -1.354400      0.667666
C      -0.364048     -0.323315      0.622167
O      -0.619445     -1.031702      1.782864
C      -1.515914     -0.142075     -0.334689
C      -1.029991      1.016340      0.478078
H       2.339611     -0.297607     -1.543224
H       0.747451      0.461855     -1.810230
H       1.908529      1.197848     -0.706238
H       0.167541     -1.577564      1.923447
H      -2.428647     -0.626583     -0.016336
H      -1.334500     -0.154494     -1.401106
H      -0.500512      1.819186     -0.017944
H      -1.624094      1.313884      1.331278
