15
Extracted from Q-Chem output
C       1.446603      0.213753     -1.278340
C       0.941572     -0.334870     -0.074493
O       1.900460     -0.923460      0.549961
C      -0.393601     -0.360716      0.519289
O      -0.588685     -1.285157      1.535654
C      -1.596466     -0.063651     -0.323883
C      -1.112621      0.976153      0.626828
H       2.395656     -0.699837     -0.574673
H       0.818051      0.366171     -2.148115
H       2.149235      1.025187     -1.094100
H       0.252110     -1.399989      1.989341
H      -2.473480     -0.630927     -0.043307
H      -1.459857      0.090623     -1.384879
H      -0.618982      1.852957      0.231085
H      -1.656749      1.107634      1.551912
