12
Extracted from Q-Chem output
O      -2.849752     -0.580257     -0.054796
C      -2.170354     -0.397384      0.920736
C      -0.742266      0.004461      0.878099
C       1.327365      0.579557     -0.398116
C      -0.104583      0.145777     -0.276554
C       2.120484     -0.354439     -1.198439
N       2.735511     -1.090220     -1.826533
H      -2.597628     -0.524987      1.934113
H      -0.242427      0.170221      1.827585
H       1.793351      0.683358      0.583083
H       1.373934      1.556393     -0.889396
H      -0.645575     -0.046552     -1.198631
