16
Extracted from Q-Chem output
C      -1.483910      0.990475     -0.444585
C      -0.536789     -0.176371     -0.154965
C      -0.753581     -0.786004      1.209350
C       0.786682     -0.043572     -0.651643
O       0.782278     -0.102726     -1.936680
C       2.078331      0.016435      0.078427
H      -1.265027      1.485733     -1.390971
H      -1.431046      1.743462      0.352833
H      -2.516585      0.638037     -0.488003
H      -0.357687     -0.502652     -1.613475
H      -0.633856     -0.050354      2.016487
H      -0.072152     -1.615721      1.406771
H      -1.769157     -1.179852      1.288068
H       1.999339      0.591611      1.000181
H       2.373226     -1.003133      0.341737
H       2.849227      0.422847     -0.574952
