17
Extracted from Q-Chem output
C      -1.368052     -0.747021      1.044469
C      -0.437677     -0.305357     -0.744043
C       0.993271      0.098265     -0.905278
C       1.879919     -0.283523      0.269945
O       1.617381      0.505004      1.414125
C      -1.419536      0.715032     -1.089174
O      -1.178632      0.855037      0.302934
H      -0.565765     -1.447148      1.241651
H      -1.644181     -0.224638      1.961672
H      -2.215932     -1.232130      0.578897
H       1.115258      1.174109     -1.106085
H       1.337207     -0.440582     -1.797021
H       2.931182     -0.138245      0.007433
H       1.740844     -1.346901      0.504244
H       0.757431      0.921176      1.305970
H      -2.441073      0.440203     -1.349205
H      -1.061740      1.607865     -1.598213
