11
Extracted from Q-Chem output
O       2.020846      0.589969     -0.363091
C       0.815731      0.449205      0.324659
C       0.227722     -0.942185      0.371355
C      -1.056433     -0.846877      0.037526
C      -1.286819      0.574456     -0.294145
N      -0.251624      1.309936     -0.183454
H       1.839105      0.497507     -1.301736
H       0.781661     -1.819649      0.672579
H      -1.798686     -1.631388     -0.003721
H      -2.237841      0.985310     -0.621061
H       1.009676      0.774230      1.354835
