11
Extracted from Q-Chem output
O       2.185635      0.296256     -0.295915
C       0.872408      0.127338     -0.004529
C       0.210812     -1.081498      0.246610
C      -1.142351     -0.808248      0.100319
C      -1.276153      0.536081     -0.231454
N      -0.075322      1.148426     -0.332083
H       2.277098      1.131293     -0.763925
H       0.684645     -2.019559      0.486917
H      -1.952896     -1.503960      0.261239
H      -2.182291      1.116956     -0.315186
H       0.461751      0.997427      0.841751
