10
Extracted from Q-Chem output
O      -0.175608      2.246171      0.466999
C      -0.122544      1.101970      0.160842
C      -1.128328      0.069740     -0.343382
C       0.672480     -1.044207      0.952657
O      -0.025472     -0.870321     -0.574403
C       0.973604      0.067631      0.022875
H      -1.587621      0.330261     -1.297267
H      -1.838396     -0.333032      0.373650
H       1.397422     -1.830375      0.695967
H       1.887967      0.238192     -0.541129
