13
Extracted from Q-Chem output
O       1.437711     -1.101845      0.343931
C       1.602431      0.318705      0.150957
C       0.134844      0.437635     -0.314564
C       0.099990     -1.036197      0.043636
C      -0.806458     -1.990480      0.096281
C      -0.745871      1.339380      0.404587
C      -1.466279      2.086353      1.000640
H      -0.544557     -2.992060      0.408236
H       1.823027      0.823769      1.091489
H       2.364255      0.536040     -0.597285
H       0.047579      0.600178     -1.389987
H      -1.830547     -1.767143     -0.165673
H      -2.108370      2.745526      1.535437
