13
Extracted from Q-Chem output
O       1.480161     -1.315135      0.002738
C       1.406082     -0.010051      0.508667
C       0.188921      0.493805     -0.306761
C      -0.370015     -0.883641     -0.383529
C      -0.952242     -1.961537     -0.143803
C      -0.711781      1.484591      0.265095
C      -1.429585      2.305314      0.757675
H       0.316145     -2.092187      0.172050
H       1.196695      0.039498      1.585817
H       2.305445      0.570338      0.290096
H       0.529881      0.804091     -1.296541
H      -1.888701     -2.471686     -0.042094
H      -2.067052      3.037736      1.194239
