14
Extracted from Q-Chem output
C       2.207436      0.011215      0.241452
N       1.103026      0.432137     -0.587990
C      -0.184905      0.173122     -0.305691
N      -1.144483      0.624476     -1.069292
N      -2.314480      0.109180     -0.405982
C      -2.007816     -0.698266      0.837718
C      -0.660115     -0.610367      0.829951
H       2.247991     -1.076562      0.332424
H       3.134514      0.344203     -0.221002
H       2.153859      0.444768      1.243462
H       1.281563      1.012538     -1.386814
H      -2.839304     -0.478673     -1.051384
H      -2.926501      0.881640     -0.148987
H      -0.011845     -1.061049      1.566920
