14
Extracted from Q-Chem output
C       2.194881      0.076739      0.271755
N       1.142363      0.296233     -0.689239
C      -0.159268      0.070034     -0.382519
N      -1.123202      0.507277     -1.180824
N      -2.250682      0.069054     -0.558756
C      -2.042229     -0.740194      0.631749
C      -0.675947     -0.621541      0.752533
H       2.220074     -0.970831      0.578927
H       3.150981      0.305592     -0.195480
H       2.088776      0.697762      1.168490
H       1.303668      0.952017     -1.431921
H      -3.078803     -0.037629     -1.127348
H      -2.663226      0.464002      0.516008
H      -0.097955     -1.002497      1.579516
