13
Extracted from Q-Chem output
O      -0.218222      1.254393     -0.388807
C       0.976904      0.747780      0.019720
C       0.834635     -0.733113      0.262636
C      -0.674555     -0.916281      0.388735
C      -1.196066      0.215204     -0.490983
N       2.024689      1.425217      0.165049
H       1.232658     -1.263604     -0.606222
H       1.409619     -1.038842      1.133079
H      -1.028544     -1.893002      0.061933
H      -0.992116     -0.765037      1.422034
H      -1.278654     -0.088040     -1.539468
H      -2.152076      0.623796     -0.166248
H       1.862407      2.399335     -0.079873
