13
Extracted from Q-Chem output
O       0.785803      1.093424     -1.421450
C       0.953489      0.599525     -0.258770
C       0.746430     -0.934501     -0.117176
C      -0.740272     -0.937307      0.317948
C      -1.071113      0.430519     -0.150285
N       1.105936      1.219739      0.893192
H       0.877749     -1.410652     -1.084968
H       1.384417     -1.377377      0.641273
H      -1.348283     -1.693432     -0.179205
H      -0.833387     -1.009363      1.398683
H      -1.345894      0.581395     -1.183795
H      -1.307922      1.222873      0.543699
H       1.190808      2.219086      0.702603
