16
Extracted from Q-Chem output
C       2.458298     -0.307449      0.003359
C       0.988308     -0.081397      0.039551
C       0.002069     -0.882831     -0.395995
C      -1.281697     -0.244944     -0.140424
C      -2.509449     -0.735565     -0.300402
C      -0.941549      1.138746      0.385479
N       0.497803      1.070543      0.645351
H       2.866303     -0.327018      1.016292
H       2.691797     -1.250167     -0.487914
H       2.963299      0.496689     -0.539162
H       0.133448     -1.870053     -0.812310
H      -1.498191      1.387316      1.290421
H      -3.389538     -0.154127     -0.053514
H      -2.666615     -1.735715     -0.684389
H      -1.166646      1.896030     -0.373452
H       1.026908      1.914587      0.497192
