14
Extracted from Q-Chem output
C      -0.948435     -0.948010      0.172016
C      -0.020780      0.167340     -0.151162
N      -0.462262      1.434528      0.017369
O      -1.477144      1.665492      0.931400
C       1.255437      0.004772     -0.722359
C       2.107452     -0.873525      0.186328
O       1.568010     -1.322003     -1.057504
H      -1.833651     -0.871849     -0.467316
H      -0.455865     -1.894894     -0.027252
H      -1.289664     -0.896336      1.205688
H      -2.233848      1.940580      0.404725
H       1.731534      0.814197     -1.266398
H       0.225816      2.172793      0.047062
H       1.531952     -1.354672      1.005482
