12
Extracted from Q-Chem output
O       0.093579     -0.227950      2.136132
C       0.745529     -0.117765      1.158038
C       2.083887     -0.195758      0.693767
C       2.209753      0.062334     -0.578936
C      -0.348800      0.242279     -0.208047
C      -1.668666     -0.462909     -0.422755
N      -1.450809      0.932747     -0.164900
H       3.094887      0.100726     -1.200471
H       1.189446      0.286423     -1.093601
H      -2.007306     -1.097339      0.390622
H      -1.998298     -0.718904     -1.421799
H      -1.814106      1.648659      0.442183
