11
Extracted from Q-Chem output
N      -2.119071     -0.216563      0.181660
C      -0.852965     -0.508490     -0.247582
O      -0.609063     -1.384939     -1.044965
N       0.131890      0.269659      0.339484
C       1.472225      0.119114      0.051872
N       2.330730      0.824847      0.653813
H      -2.855887     -0.668730     -0.329031
H      -2.331340      0.672513      0.595813
H      -0.089743      0.930491      1.066177
H       1.658142     -0.637123     -0.710145
H       3.265081      0.599220      0.332439
