11
Extracted from Q-Chem output
N      -1.935109     -0.457971      0.206519
C      -0.595759     -0.319467      0.045365
O       0.025947     -1.410018     -0.276795
N       0.052605      0.795777      0.215624
C       1.879041      0.687210      0.085751
N       2.325552     -0.375636     -0.184736
H      -2.340129     -1.325155     -0.098337
H      -2.522611      0.353616      0.232964
H      -0.483308      1.597080      0.512518
H       2.132587      1.714365      0.304494
H       1.059488     -1.179058     -0.294020
