11
Extracted from Q-Chem output
C      -1.124013     -0.609497      0.534757
C       0.214064      0.079634      0.380258
C       1.241878     -0.642481     -0.413366
O       1.366560     -1.389829     -1.275236
C       0.451044      1.351374     -0.518297
N      -0.308196      2.185325     -0.898033
H      -1.795251      0.042326      1.090716
H      -1.564759     -0.814628     -0.440195
H      -1.020186     -1.542980      1.088266
H       0.659110      0.401591      1.323222
H       1.632659      1.199880     -0.698186
