7
Extracted from Q-Chem output
C      -0.757836      0.029172     -0.052765
C       0.580740      0.600441      0.154750
O      -0.061671      0.021435      1.199055
H      -0.910838     -0.957576     -0.475421
H      -1.595626      0.714884     -0.116823
H       1.290197     -0.620499     -0.510259
H       1.648653      0.215568     -0.235052
