11
Extracted from Q-Chem output
C      -2.353339     -0.634130     -0.413855
N      -1.169256     -0.529192      0.422391
C       2.703319      1.167550      0.343187
C       1.794887      0.242974      0.456501
N       0.995760     -0.664669      0.620727
N      -0.141731     -0.718979     -0.207584
H      -2.109634     -0.875929     -1.450276
H      -2.999440     -1.399801      0.017878
H      -2.886108      0.316090     -0.359169
H       2.655540      2.058230      0.953443
H       3.508374      1.048380     -0.368437
