11
Extracted from Q-Chem output
C      -2.006170     -0.437656     -0.088082
N      -0.572969     -0.246095      0.047751
C       1.644778      1.487995      0.099457
C       1.794953      0.187692     -0.021999
N       1.495502     -1.002114     -0.340566
N       0.087485     -1.164402     -0.418585
H      -2.246731     -1.373651     -0.594613
H      -2.448841     -0.419728      0.908982
H      -2.408577      0.410214     -0.644083
H       1.755155      1.960124      1.074444
H       2.908063      0.603765     -0.021460
