17
Extracted from Q-Chem output
C       1.649313      0.301846     -0.718189
C       0.385521      0.321175      0.105655
C      -0.074507     -1.051633      0.612636
C      -1.074733     -1.092166     -0.564330
C      -0.910804      0.437576     -0.705952
C      -0.214317      1.695455      2.036990
O       0.626720      1.362778      1.128284
H       2.506600      0.055430     -0.090156
H       1.574551     -0.442786     -1.512230
H       1.819183      1.278736     -1.173147
H       0.687770     -1.827234      0.683085
H      -0.595066     -0.970142      1.567804
H      -2.075727     -1.459424     -0.345080
H      -0.682480     -1.632974     -1.425119
H      -0.825953      0.867720     -1.703647
H      -1.138612      1.063786      1.910324
H      -1.683484      0.968606     -0.148287
