14
Extracted from Q-Chem output
O       0.045161     -0.256302     -1.330326
C       0.769497      1.023436     -0.625472
C      -1.202810     -0.424016     -0.599329
C      -0.979920     -0.115032      0.885657
O       0.334373     -0.447449      1.254700
C       1.342866      0.326485      0.572671
H       0.574870     -1.060831     -1.208211
H       1.559919      1.243281     -1.350775
H      -1.516745     -1.455796     -0.771067
H      -1.903734      0.267038     -1.061591
H      -1.635098     -0.746915      1.489158
H      -1.207881      0.932416      1.086960
H       1.760750      1.091157      1.239781
H       2.141232     -0.415865      0.383439
