11
Extracted from Q-Chem output
N      -1.178987     -0.878529     -0.363296
C      -0.623449     -0.750683      0.893272
C       0.641928     -0.276622      0.141108
O       1.279257      0.947462      0.479870
C       0.577147      2.010023      0.238295
C      -0.213134     -0.340320     -1.091530
H      -2.057644     -1.288566     -0.649922
H      -0.660248     -1.607473      1.564950
H       1.401562     -1.060598      0.163727
H       1.246212      2.825672      0.594604
H      -0.288929      0.200425     -2.020691
