11
Extracted from Q-Chem output
N      -1.141892     -0.681809     -0.322080
C      -0.465641     -0.604573      0.861575
C       0.806147     -0.358172      0.035217
O       1.425659      0.854172      0.406744
C       0.343193      1.621094      0.424449
C      -0.192173     -0.122442     -1.094197
H      -2.109186     -0.889779     -0.516506
H      -0.669372     -1.249511      1.707219
H       1.505564     -1.188381     -0.073805
H       0.702893      2.631665      0.718217
H      -0.153200     -0.119078     -2.173025
