13
Extracted from Q-Chem output
C      -0.741869      1.097029     -0.118913
C      -1.385056     -0.265310     -0.054103
C       0.785067     -0.514022      0.683423
C       1.451651      0.049003     -0.515318
N       0.643746      0.906752      0.335905
C      -0.530620     -1.157814      0.426960
H      -1.242899      1.810758      0.541941
H      -0.755493      1.527511     -1.124900
H      -2.400226     -0.464716     -0.372283
H       1.355687     -0.763933      1.570925
H       2.512394      0.271782     -0.498471
H       1.052889     -0.250829     -1.480566
H      -0.728554     -2.207238      0.598897
