14
Extracted from Q-Chem output
O      -1.732385      1.286668      1.109592
C      -0.919425      0.709556      0.135522
C       0.300380      1.392297     -0.390931
C       0.417748      0.134574      0.458712
C       0.921932     -1.129868     -0.131691
C       0.175323     -2.102425     -0.632316
H      -1.185425      1.754861      1.742895
H      -1.535339      0.180740     -0.579420
H       0.595277      2.330855      0.063402
H       0.517019      1.311299     -1.448642
H       0.765722      0.322407      1.471536
H       2.004674     -1.235415     -0.150039
H       0.623550     -2.990221     -1.060771
H      -0.907898     -2.052100     -0.628329
