14
Extracted from Q-Chem output
C       1.613068      0.694242     -0.483195
C       0.853410     -0.564664     -0.089525
N      -0.541445     -0.319467      0.199635
C      -1.581442     -0.093930     -0.637555
C      -1.225232     -0.153022      1.353031
H       2.656642      0.460180     -0.702572
H       1.168852      1.144714     -1.372256
H       1.589926      1.431161      0.321465
H       1.294865     -1.032255      0.792383
H       0.892718     -1.295169     -0.905927
H      -1.841191     -0.822387     -1.407460
H      -2.052286      0.877493     -0.657164
H      -0.900135      0.564229      2.107474
H      -2.013926     -0.847994      1.598066
