11
smiles: [H:10][H:11].[O:1]([C@@:2]1([H:7])[C:3]([H:8])([H:9])[O+:4]=[C-:5]1)[H:6]
O        1.28777800      -0.82524200       0.27485700
C        0.25310200      -0.06441500       0.81786400
C       -0.04431000       1.26925700       0.13110100
O       -1.41296600       0.78877000      -0.02250100
C       -1.18882500      -0.43213600       0.42314700
H        1.02728300      -1.74992500       0.30711200
H        0.32895900       0.03388100       1.90944100
H       -0.00478800       2.19095100       0.71085900
H        0.42394800       1.39038800      -0.84351600
H       -0.56844700      -1.66348900      -1.86149900
H       -0.00821000      -1.52357500      -2.33150600
