16
Extracted from Q-Chem output
C      -0.921297     -0.488319      1.200570
C      -0.130468     -0.201703     -0.051290
C      -0.479079     -1.143761     -1.196919
C      -0.017685      1.279611     -0.656125
O       1.386897      1.029084     -0.979480
C       1.286199      0.195850      0.093930
N       1.566968      0.815105      1.246501
H      -0.759280      0.267513      1.965159
H      -1.986105     -0.529055      0.964529
H      -0.630504     -1.457054      1.612141
H      -0.379079     -2.180095     -0.869368
H      -1.515569     -0.987885     -1.500633
H       0.168076     -0.989073     -2.059186
H       0.635771      1.591276      0.896750
H      -0.579053      1.430902     -1.588902
H       2.355233      1.444756      1.095450
