12
Extracted from Q-Chem output
N      -0.688596      1.834242      0.361635
C      -1.093388      2.925073      0.437149
C      -0.204911      0.539404      0.227509
C       1.141467      0.075811     -0.347965
C       0.408805     -1.109933      0.308928
C      -0.902658     -0.686135     -0.380928
O       0.060041     -0.223770      1.440207
H       1.253212      0.075774     -1.431102
H       2.015358      0.437938      0.187785
H       0.773849     -2.102376      0.547824
H      -0.956879     -0.748270     -1.466713
H      -1.814546     -0.990540      0.126674
