13
Extracted from Q-Chem output
N       1.820838     -0.021501     -0.557256
C       1.011702      0.011117      0.490294
O       1.461261      0.241812      1.670020
C      -0.406587     -0.211053      0.607834
C      -1.252418     -0.698752     -0.532245
C      -1.334979      0.734128     -0.136200
H       1.446589     -0.185907     -1.473720
H       2.812812      0.092519     -0.446240
H       0.355199     -0.001022      1.965445
H      -0.791229     -0.924244     -1.491933
H      -2.070111     -1.364327     -0.284442
H      -2.204989      1.087579      0.403070
H      -0.914531      1.464224     -0.821533
