18
smiles: [C:1]([C:2](=[C:3]([H:13])[H:14])[H:11])([H:8])([H:9])[H:10].[C:4]([C:5]([H:16])([H:17])[H:18])(=[C:6]=[N:7][H:12])[H:15]
C       -2.24887100      -0.53018300      -0.54593700
C       -1.86594400       0.59953300      -1.44796900
C       -0.65139200       0.80944300      -1.93131700
C        1.48181300      -0.50192200       1.42631900
C        2.91819100      -0.56113600       0.98511400
C        0.74153900       0.56991300       1.34557900
N        0.08842500       1.60247200       1.37022900
H       -2.65170600      -0.15468900       0.39833900
H       -3.02947500      -1.14504400      -1.00144100
H       -1.39434200      -1.17080200      -0.32375900
H       -2.66227700       1.29048500      -1.71530900
H       -0.45850500       1.78434600       0.53258700
H        0.17491400       0.14747200      -1.69270200
H       -0.43736700       1.64733600      -2.58355800
H        1.01343300      -1.38898000       1.83683500
H        3.05970700      -1.30686800       0.19970400
H        3.25295200       0.40166000       0.59974800
H        3.56940200      -0.83297000       1.81880600
