13
smiles: [C:2]1(=[O:3])[C:4]([H:10])([H:11])[O:5]/[C:6]1=[N:7]/[H:13].[N:1]([H:8])([H:9])[H:12]
N       -1.34684800       0.15266800      -1.49833400
C       -0.01494500       0.36984900       1.18122400
O       -0.59430800       1.28058500       1.66598400
C       -0.08645800      -1.15586800       1.19479100
O        1.04847600      -1.17741700       0.29848100
C        1.17702600       0.18637600       0.23387800
N        2.02138400       0.82677000      -0.41686600
H       -1.74377500       1.08263300      -1.49683800
H       -2.04641800      -0.47637400      -1.86870200
H       -0.97821600      -1.58746500       0.73929400
H        0.13728200      -1.62690900       2.15249200
H       -0.56747300       0.15503100      -2.14227100
H        1.88975800       1.82533500      -0.28565500
