16
Extracted from Q-Chem output
C       2.085277      0.418179     -0.030474
O       1.045469     -0.284328     -0.680852
C      -0.202630     -0.175225     -0.070059
C      -1.367052     -0.353745     -1.094822
C      -0.349624     -0.937295      1.228383
C      -0.843552      1.113887     -0.167026
N      -1.341364      2.217819     -0.261034
H       1.832055      1.477901      0.086621
H       2.317429     -0.006963      0.951145
H       2.964037      0.332014     -0.666296
H      -0.977127     -0.484221     -2.098843
H      -1.855491      1.245577     -0.990594
H      -2.120890     -1.067670     -0.778523
H      -1.359140     -0.830554      1.624717
H       0.351592     -0.584708      1.985095
H      -0.157997     -1.992465      1.028430
