11
Extracted from Q-Chem output
C       2.132345     -0.186819      0.007651
C       2.033692      0.026679     -1.259472
C       0.648496     -0.070989     -0.012912
C      -0.206044      0.997583      0.033619
C      -1.518473      0.482235      0.116514
C      -1.374600     -0.870583      0.116334
O      -0.094986     -1.228469      0.028844
H       2.766542     -0.416552      0.846031
H       0.102051      2.029490     -0.007896
H      -2.445579      1.028843      0.160933
H      -2.090948     -1.674639      0.177383
