11
Extracted from Q-Chem output
C       3.016410     -0.079505     -0.026989
C       1.818236     -0.070017     -0.019346
C       0.402634     -0.042025     -0.008262
C      -0.489048      0.959716      0.206630
C      -1.782209      0.374682      0.085067
C      -1.573187     -0.932255     -0.192855
O      -0.255522     -1.206170     -0.253771
H       4.080594     -0.091073     -0.034606
H      -0.244080      1.986032      0.424017
H      -2.737138      0.863115      0.188816
H      -2.236690     -1.762501     -0.368701
