16
smiles: [C:1](=[C:6]1[C:2]([H:9])=[C:3]([H:11])[C:4]([H:12])([H:13])[C:5]1([H:14])[H:15])([H:7])[H:8].[H:10][H:16]
C       -2.06622500      -0.22313100       0.22186400
C       -0.16733100       1.38284800       0.02046800
C        1.15157500       1.35060800       0.19301400
C        1.64218600      -0.00681300       0.61334500
C        0.36015700      -0.86588200       0.65650900
C       -0.77287400       0.07597900       0.28838400
H       -2.43046500      -1.22021600       0.43986700
H       -2.80196200       0.52338700      -0.05210700
H       -0.74365300       2.24985600      -0.27711700
H       -0.38175800      -1.23457100      -3.01560500
H        1.81686700       2.19411600       0.05448600
H        2.14213500       0.03924300       1.58493700
H        2.37999600      -0.39715500      -0.09300400
H        0.19679300      -1.29947500       1.64422200
H        0.41095300      -1.69580700      -0.05010700
H       -0.70902600      -0.94160700      -2.41440000
