16
Extracted from Q-Chem output
C      -1.747714      0.225157      0.549496
C      -0.553185      1.054035     -0.204146
C       0.848092      0.969754     -0.206400
C       1.365410     -0.273764      0.470498
C       0.196885     -1.254948      0.248739
C      -0.895103     -0.392835     -0.422389
H      -1.730803     -0.083912      1.594289
H      -2.643239      0.763447      0.262639
H      -1.014762      1.804453     -0.830584
H       0.689883      0.132850     -1.773167
H       1.485207      1.820583     -0.415652
H       1.585998     -0.079041      1.525662
H       2.287681     -0.632152      0.016301
H      -0.161490     -1.690435      1.183453
H       0.474999     -2.079370     -0.405251
H      -0.172221     -0.339135     -1.730141
