12
Extracted from Q-Chem output
O       0.042985     -1.247632     -0.464527
C      -1.027440     -0.555774      0.108436
C      -0.880114      0.675547      0.570549
C       1.518382      1.272398      0.123619
C       0.304612      1.532582      0.602422
C      -0.186919     -2.451259     -0.858441
N      -0.353046     -3.529587     -1.223722
H      -1.952751     -1.115440      0.130741
H      -1.788327      1.093354      0.988443
H       1.773552      0.345979     -0.370940
H       2.305116      2.009617      0.223144
H       0.143167      2.493089      1.081216
