12
Extracted from Q-Chem output
O      -0.323725     -1.703510      0.077361
C      -0.903868     -0.897955      0.950947
C      -0.742014      0.418710      0.739802
C       1.290369      0.857963      0.124191
C       0.086555      0.598528     -0.536412
C      -0.042962     -0.905171     -1.152645
N       0.007384     -1.255222     -2.279946
H      -1.510397     -1.370279      1.711983
H      -1.128414      1.236304      1.322550
H       1.692233      0.119433      0.805691
H       1.852586      1.777563     -0.008062
H      -0.253024      1.333815     -1.256303
