8
Extracted from Q-Chem output
O      -0.035362     -1.054165      1.738616
C      -0.090833     -0.055392     -0.713454
C       0.121030      1.370134     -0.845150
N       0.261717      2.505094     -0.940378
C       0.256167     -0.747215      0.499617
N       1.125686     -0.944248     -0.362680
H      -0.847204     -0.611689      2.005587
H      -0.810383     -0.468812     -1.413261
