8
Extracted from Q-Chem output
O      -0.667975     -0.956358      1.089560
C      -0.144490     -0.044817     -0.669799
C      -0.129271      1.366708     -0.715884
N      -0.139401      2.517310     -0.733021
C       0.659119     -0.785586      0.236646
N       1.768475     -1.190996      0.379033
H      -0.631938     -0.341889      1.837413
H      -0.715677     -0.568917     -1.430574
