13
Extracted from Q-Chem output
C       1.142011     -0.620912     -0.157924
C       0.794936      0.496496      0.787535
C       0.180726      1.382327     -0.264557
C       0.017262     -0.038348     -1.030188
C      -1.249001     -0.283481     -0.229950
N      -0.688777      0.569696      0.814500
H       1.100502     -1.667901      0.163251
H       2.114787     -0.409166     -0.601619
H       1.277653      0.790910      1.712758
H      -1.189496      1.016678      1.563666
H       0.007311     -0.166695     -2.107258
H      -1.505968     -1.302492      0.081372
H      -2.110871      0.215586     -0.672161
