13
Extracted from Q-Chem output
C       1.128827     -0.537123     -0.182737
C       0.694158      0.391507      0.938791
C      -0.139752      1.195643      0.027517
C      -0.142199     -0.059105     -0.912988
C      -1.249607     -0.569914      0.007718
N      -0.791268      0.371806      1.063415
H       1.227237     -1.607496      0.016675
H       2.035109     -0.158636     -0.655810
H       1.240215      0.700246      1.818025
H      -0.291442      2.257214     -0.104379
H      -0.215278     -0.086064     -1.996538
H      -1.246421     -1.628460      0.285659
H      -2.249578     -0.269619     -0.305347
