13
Extracted from Q-Chem output
C       1.127846     -0.590758     -0.179837
C       0.732732      0.391463      0.904446
C       0.146306      1.346127     -0.094617
C      -0.037726      0.027477     -0.966481
C      -1.237749     -0.372558     -0.142594
N      -0.738561      0.361905      1.061783
H       1.118185     -1.663806      0.029078
H       2.090094     -0.299896     -0.600035
H       1.275805      0.631332      1.809990
H      -0.941035      1.481150      0.711908
H      -0.069536      0.013335     -2.051849
H      -1.408062     -1.435201      0.050997
H      -2.167226      0.092128     -0.473367
