12
smiles: [C:1]1([H:7])([H:8])[O:2][C@@:3]2([H:9])[C-:4]=[O+:5][C@@:6]12[H:12].[H:10][H:11]
C       -1.77205100       0.22878600       0.08962400
O       -1.14596700       0.85300100      -1.04555800
C        0.09365000       0.16365300      -0.79681000
C        0.93694400       1.04174000       0.16226200
O        0.38869000       0.44877900       1.21563800
C       -0.47300800      -0.45736900       0.47981000
H       -2.54697700      -0.47125900      -0.23239300
H       -2.17454100       0.94589300       0.80753000
H        0.52820400      -0.32433300      -1.66536800
H        3.68339200      -0.76264400      -0.18825700
H        3.36990400      -0.08939300      -0.13476000
H       -0.43907200      -1.47833800       0.84808500
