12
Extracted from Q-Chem output
C      -1.393826      0.460381      0.084638
O      -0.645991      0.762723     -1.113513
C       0.293768     -0.280414     -0.846189
C       1.462691      0.166302      0.027835
O       0.717507     -0.121391      1.231197
C      -0.391895     -0.620593      0.481093
H      -2.394321      0.093492     -0.162525
H      -1.457732      1.308465      0.769801
H       0.467859     -0.936958     -1.696906
H       2.356068     -0.461499     -0.037451
H       1.730532      1.221234     -0.063255
H      -0.744659     -1.591741      0.823984
