14
Extracted from Q-Chem output
O       1.651211      1.223138     -1.640926
C       0.963239      0.315024     -0.919560
C       1.457704     -0.667499      0.114276
N       0.024048     -1.103422      0.252708
C      -0.908293     -0.375732      1.176067
C      -1.607275      0.285421     -0.055290
C      -0.301696     -0.075641     -0.711084
H       2.140777     -1.468919     -0.173576
H       1.819118     -0.176893      1.019825
H      -0.397874      0.382556      1.779810
H      -1.501695     -1.031994      1.813249
H      -1.868476      1.339356      0.012433
H      -2.457132     -0.294996     -0.414736
H       1.035495      1.756157     -2.149434
