16
Extracted from Q-Chem output
C       1.498829      0.095736     -1.400418
C       0.825222      0.578396     -0.122652
C      -0.678584      0.075059      1.776286
O      -1.790354      0.342503      2.139230
C      -0.291790     -0.348617      0.379501
C      -1.494943     -0.424232     -0.545918
H       1.918434     -0.904893     -1.269440
H       2.313870      0.763303     -1.684050
H       0.800888      0.057454     -2.238096
H       1.581762      0.683024      0.662190
H       0.406704      1.578374     -0.278619
H       0.172468      0.137327      2.490141
H       0.147744     -1.350232      0.499967
H      -1.922829      0.568115     -0.701692
H      -2.277226     -1.050941     -0.118187
H      -1.218701     -0.836532     -1.516693
