16
Extracted from Q-Chem output
C       2.060156      0.211011     -0.733725
C       0.979914      0.984737      0.008593
C      -0.062668      0.124242      0.754316
O      -0.930354      0.734244      1.529271
C      -0.853316     -0.801835     -0.074396
C      -2.258957     -0.557257     -0.377987
H       2.609276     -0.452986     -0.061336
H       2.785935      0.890104     -1.183361
H       1.646223     -0.398611     -1.540771
H       1.415374      1.623001      0.781125
H       0.428181      1.642710     -0.667752
H       0.521418     -0.664243      1.323597
H      -0.467661     -1.802153     -0.280945
H      -2.474803      0.510789     -0.305338
H      -2.897430     -1.041591      0.371052
H      -2.517811     -1.009268     -1.340129
