14
Extracted from Q-Chem output
C      -2.050273     -0.171430      0.254537
C      -0.769458      0.132168     -0.405101
C      -0.010940      0.904257     -1.109477
C       0.605338     -0.391473     -0.673297
C       1.653494     -0.446502      0.426562
O       1.414904      0.473527      1.468506
H      -1.889414     -0.308061      1.325809
H      -2.778908      0.624527      0.101721
H      -2.460229     -1.106478     -0.133692
H       1.113333      1.296550      1.074191
H       0.116093      1.816183     -1.667761
H       0.734540     -1.188427     -1.410297
H       2.650886     -0.290718     -0.009191
H       1.651471     -1.438130      0.886708
