14
Extracted from Q-Chem output
C      -1.917074     -0.210682      0.318486
C      -0.561844      0.123893     -0.101130
C       0.200667      1.049508     -0.825644
C       0.662353     -0.412737     -0.618849
C       1.646587     -0.428694      0.582022
O       1.261151      0.607127      1.353062
H      -1.925241     -1.053802      1.007828
H      -2.417144      0.652147      0.756497
H      -2.477325     -0.503782     -0.578501
H       0.851110      1.566315     -0.056884
H      -0.154392      1.572697     -1.704162
H       0.650452     -1.193298     -1.372874
H       2.712943     -0.405993      0.292899
H       1.460136     -1.420442      1.031782
