14
Extracted from Q-Chem output
O       1.183387      2.248506      0.155124
C       0.461860      1.111887      0.071588
C       1.336040     -0.105013      0.048297
C       0.520708     -1.356900     -0.044568
C      -0.800191     -1.319852     -0.096209
C      -1.575529     -0.038525     -0.065851
N      -0.793639      1.175714      0.023421
H       1.959848     -0.100244      0.947833
H       2.031948     -0.015833     -0.791939
H       1.051520     -2.302040     -0.067921
H      -1.372689     -2.239486     -0.161628
H      -2.275128     -0.053658      0.777694
H      -2.206887      0.029010     -0.959145
H       0.544295      2.971855      0.165847
