17
Extracted from Q-Chem output
C      -1.811246      0.455151     -0.160148
C      -0.745784     -0.645478     -0.210811
C       0.339190     -0.353510     -1.254697
C       1.373477      0.616900     -0.757769
C       1.680037      0.675041      0.536650
C       0.982821     -0.179040      1.500946
C      -0.133634     -0.819294      1.157561
H      -2.315159      0.552342     -1.124909
H      -2.567239      0.232520      0.595414
H      -1.359829      1.417424      0.091084
H      -1.242151     -1.577857     -0.494555
H       0.850393     -1.287549     -1.523250
H      -0.122574      0.015179     -2.174466
H       1.902189      1.232127     -1.477397
H       2.454427      1.344515      0.892787
H       1.381794     -0.265573      2.505228
H      -0.669364     -1.421297      1.884284
