13
Extracted from Q-Chem output
O       1.514971     -0.692306     -1.431532
C      -0.045838      0.291806      0.258460
C      -0.762890     -0.653566     -0.610025
O      -2.033872     -0.093598     -0.238620
C      -1.387300      0.845713      0.623551
C       1.217247      0.298185      0.875457
O       2.307265      0.077815      0.361954
H       2.419824     -0.873154     -1.709217
H      -0.669287     -1.718513     -0.385483
H      -0.466319     -0.525625     -1.675249
H      -1.567493      1.885580      0.329959
H      -1.674416      0.713010      1.673169
H       1.175033      0.424120      1.970145
