13
Extracted from Q-Chem output
O       1.078482      0.557952     -1.172911
C       0.194059      0.141679     -0.241916
C      -0.932793     -0.843565     -0.528093
O      -1.777888     -0.101071      0.371553
C      -0.902361      1.041849      0.308143
C       1.516550     -0.633137      1.160359
O       2.553784     -0.535130      0.621636
H       1.975858      0.272872     -0.900737
H      -0.826436     -1.892210     -0.227180
H      -1.292959     -0.796576     -1.562936
H      -1.249681      1.784227     -0.420874
H      -0.776977      1.524061      1.283712
H       0.440360     -0.520951      1.309244
