15
smiles: [C:1](=[C:2]([C:3]([H:9])([H:10])[H:11])[C:4]([H:12])([H:13])[H:14])([H:6])[H:8].[O:5]([H:7])[H:15]
C        0.21955100       1.49014500       0.34321200
C        0.30846200       0.39374800      -0.39927300
C        1.49806400      -0.51984700      -0.33747700
C       -0.77208800      -0.01464500      -1.35797500
O       -1.12172100      -1.21600100       1.98108900
H       -0.64507100       2.14183200       0.28895000
H       -0.73333300      -0.42006600       1.61585100
H        1.00727300       1.77251600       1.03222400
H        2.23730100      -0.17472800       0.38513500
H        1.19350600      -1.53333400      -0.06047400
H        1.98080700      -0.59220800      -1.31642500
H       -0.37996600      -0.07710700      -2.37729200
H       -1.15581700      -1.00761500      -1.10634500
H       -1.60585400       0.68700000      -1.35244500
H       -2.06793600      -1.06620300       1.96981400
