15
Extracted from Q-Chem output
C      -0.012370      1.375181      0.590918
C      -0.094064     -0.079837      0.155730
C       1.295330     -0.634892     -0.147290
C      -1.014885     -0.233438     -1.052011
O      -0.652183     -0.771564      1.274209
H       0.404056      1.995772     -0.204374
H      -1.006124      1.748657      0.842131
H       0.620313      1.468143      1.474820
H       1.934139     -0.551623      0.733224
H       1.237383     -1.690162     -0.429614
H       1.766509     -0.096444     -0.972322
H      -0.634153      0.318991     -1.913560
H      -1.100452     -1.284604     -1.342425
H      -2.013126      0.136928     -0.813648
H      -0.730373     -1.701110      1.048131
