13
Extracted from Q-Chem output
C      -1.158622      0.960738      0.158876
C      -1.031464     -0.519685      0.087146
C      -0.512461      0.283376     -0.984758
N       1.549688      0.528471     -0.461172
C       1.535521     -0.174924      0.714245
C       0.451146     -0.715462     -0.210956
H      -0.556185      1.546892      0.845973
H      -2.151983      1.348732     -0.035296
H      -1.734517     -1.333391      0.142961
H      -0.595452      0.333540     -2.055345
H       1.214951      0.281479      1.663119
H       2.265925     -0.981473      0.861640
H       0.688258     -1.620488     -0.753383
