15
Extracted from Q-Chem output
C      -1.446402     -0.793463      0.352769
C      -0.569217     -0.010140     -0.621073
N      -0.214727      1.296684     -0.102661
C       0.671141      1.306016      1.048875
C       0.612407     -0.830685     -1.015024
N       1.555435     -1.440366     -1.274804
O       2.536155     -2.077537     -1.556210
H      -2.300541     -0.176978      0.632938
H      -0.897115     -1.066786      1.253705
H      -1.804462     -1.711842     -0.112226
H      -1.145529      0.161867     -1.533436
H       0.175807      1.859275     -0.844872
H       0.932744      2.338252      1.279114
H       1.600548      0.738674      0.898419
H       0.161116      0.898149      1.922373
