13
Extracted from Q-Chem output
C      -1.999410      0.501292     -0.327893
C      -0.776907     -0.382601     -0.298459
O       0.364468      0.479402     -0.183890
C       1.587854     -0.045990     -0.116465
O       1.596363     -1.386652     -0.192759
N       2.656505      0.610972      0.005331
H      -1.970435      1.174770     -1.185030
H      -2.064653      1.099792      0.581296
H      -2.897674     -0.113571     -0.401693
H      -0.798914     -1.065646      0.552980
H      -0.691201     -0.976617     -1.210497
H       2.469141      1.605181      0.049816
H       2.522861     -1.643822     -0.133692
