17
Extracted from Q-Chem output
O       1.895004      0.014523      1.323186
C       1.945536     -0.442689     -0.024046
C       0.570287     -0.952156     -0.399572
C      -0.457464      0.140858     -0.389363
C      -1.931356     -0.092661     -0.603030
O      -2.092116      1.305505      0.004342
C      -0.886949      0.862135      0.864056
H       2.737664      0.410258      1.546866
H       2.688144     -1.244466     -0.124046
H       2.222004      0.377791     -0.696970
H       0.320911     -1.778723      0.286305
H       0.632502     -1.387059     -1.402066
H      -1.314752      1.570864     -0.713401
H      -2.474023     -0.737740      0.107162
H      -2.371283     -0.148940     -1.598741
H      -0.339975      1.716770      1.253732
H      -1.355741      0.281347      1.673461
