16
Extracted from Q-Chem output
C       2.426593     -0.292120     -0.176512
C       1.189146      0.422111     -0.671527
C      -0.166148      0.284164      0.517780
O       0.219849      0.300756      1.665452
C      -1.349294      0.054400     -0.153758
C      -2.639002     -0.184378      0.562474
H       3.322304      0.131678     -0.632475
H       2.503323     -0.177522      0.905038
H       2.400586     -1.358258     -0.410317
H       0.977724      0.255129     -1.733905
H       1.262082      1.500134     -0.531047
H       0.139850     -0.527308     -0.445482
H      -1.356388      0.229834     -1.222735
H      -3.229563      0.734193      0.628383
H      -3.244383     -0.926979      0.040343
H      -2.449182     -0.530250      1.578605
