16
Extracted from Q-Chem output
C      -1.889492      0.129086      1.301690
C      -1.927580      1.055396      0.125452
N      -1.038059      0.824695     -0.806124
C       0.008553     -0.201278     -0.911559
C       1.259713      0.182402     -0.138330
C       2.369257     -0.823889     -0.257137
O       2.304647     -1.830000     -0.908838
H      -1.257201     -0.766680      1.257900
H      -1.574858      0.732927      2.159201
H      -2.912451     -0.173350      1.532336
H      -0.373653     -1.159050     -0.563335
H      -1.056718      1.462878     -1.587777
H       0.246951     -0.331492     -1.967444
H       1.040647      0.316382      0.926776
H       1.651632      1.149599     -0.474293
H       3.290359     -0.579394      0.311085
