16
Extracted from Q-Chem output
C      -1.526205      0.067134      1.328036
C      -1.703312      0.163691     -0.165198
N      -0.956679      1.273934     -0.701616
C      -0.029011      0.171283     -0.928723
C       1.262716      0.210815     -0.159167
C       2.028222     -1.082394     -0.203408
O       1.629528     -2.085795     -0.728115
H      -0.708378      0.646923      1.768793
H      -2.458514      0.487735      1.717895
H      -1.493960     -0.969885      1.665487
H      -0.712027     -0.783735     -0.676614
H      -1.356085      1.541296     -1.592603
H       0.092974     -0.065191     -1.983818
H       1.099343      0.468852      0.890097
H       1.906108      1.008027     -0.547093
H       3.016677     -1.062982      0.299238
