11
Extracted from Q-Chem output
C      -1.360366     -0.611159      0.586472
C      -0.369012      0.008657     -0.374600
C       0.867364     -0.522893     -0.587081
C       2.121712     -0.471538     -0.416708
C       2.221596      0.647227      0.331558
N       1.752828      1.584539      0.884564
H      -0.852126     -1.091112      1.422945
H      -1.983291     -1.359340      0.091929
H      -2.021766      0.158217      0.986208
H       0.582630      1.128913      0.442078
H      -0.797050      0.560663     -1.209911
