12
Extracted from Q-Chem output
O      -1.228221      0.977450     -0.647563
C      -1.091221     -0.091064      0.536944
C      -0.765314     -1.277247     -0.171961
C       0.313611     -0.584717      0.656714
C       1.371476      0.166446      0.020633
C       2.190749      0.854716     -0.525905
H      -0.411942      1.510874     -0.664374
H      -1.765125      0.222322      1.320969
H      -1.040646      0.109596     -1.225108
H      -1.130839     -2.252734      0.117159
H       0.579264     -0.951246      1.646608
H       2.949730      1.421150     -1.011821
