14
smiles: [C:1]([C-:2]1[C:3]([H:10])=[C:4]=[O+:5][C:6]1([H:13])[H:14])([H:7])([H:8])[H:9].[H:11][H:12]
C       -1.90460500       0.24095100      -0.69614800
C       -0.61945900       0.06627300       0.03235000
C        0.44474800       0.87657900       0.10770900
C        1.49846400       0.28927700       0.95038300
O        1.01355800      -0.86941200       1.35254800
C       -0.30545200      -1.13218600       0.84899900
H       -2.05332100      -0.56403400      -1.42007400
H       -1.92859600       1.19067300      -1.22788300
H       -2.75076600       0.20902700      -0.00551500
H        0.54747100       1.83921900      -0.37343600
H        3.71861200       0.54591700      -0.65894400
H        4.09098700       0.55229000      -1.30368000
H       -0.97928100      -1.27042400       1.69824700
H       -0.27714300      -2.05938700       0.27124000
