12
Extracted from Q-Chem output
C      -1.734508     -0.066978     -0.093269
C      -0.355301      0.084478      0.537257
C       0.437703      1.240206     -0.018800
N       1.547818      0.626387     -0.384242
C       1.521336     -0.774879     -0.126953
N       0.443003     -1.147920      0.403803
H      -2.316128      0.840953      0.060032
H      -2.256234     -0.913675      0.351432
H      -1.646438     -0.241924     -1.166698
H      -0.476310      0.279886      1.611230
H       2.332850      1.096572     -0.806876
H       2.363438     -1.408492     -0.380630
