12
Extracted from Q-Chem output
C      -1.875519     -0.106369     -0.010985
C      -0.382788     -0.014803      0.050693
C       0.402019      1.181292     -0.140828
N       1.658802      0.612016     -0.201294
C       1.597860     -0.748907     -0.148301
N       0.395686     -1.186587      0.010645
H      -2.322438      0.873186      0.153615
H      -2.256232     -0.816308      0.723102
H      -2.170994     -0.455144     -1.001020
H      -0.107033      0.706337      1.040585
H       2.504957      1.149551     -0.263491
H       2.479162     -1.373504     -0.220186
