13
Extracted from Q-Chem output
O       1.424093      1.794552      0.427139
C       1.886737      0.693861     -0.085631
C       0.998930     -0.501665     -0.096254
C      -0.386622     -0.286079      0.451065
C      -1.488237      0.183544     -0.409706
N      -1.402006     -1.222354     -0.022653
H       2.510267      1.776787      0.007078
H       1.531646     -1.288128      0.451906
H       0.953764     -0.868631     -1.127166
H      -0.432864      0.017834      1.491919
H      -1.300559      0.379347     -1.459550
H      -2.254706      0.805072      0.038444
H      -2.067806     -1.434043      0.709168
