8
Extracted from Q-Chem output
N      -1.066909      0.943854      0.249567
C       0.060481     -1.248976     -0.006550
O       0.186141     -2.388225     -0.098808
C       0.038695      0.105731      0.050619
C       1.363520      0.402502      0.012252
H      -0.744213      1.902725      0.273583
H      -1.787573      0.833611     -0.448944
H       2.048631     -0.447373     -0.061201
