14
Extracted from Q-Chem output
C       2.782775      0.005126      0.258317
N       1.365327     -0.455901      0.283264
C       0.473105      0.502093     -0.382572
C      -0.773728      0.158251     -0.612808
C      -3.050939     -0.085667     -0.034180
N      -1.886191     -0.202495     -0.891379
N       1.005809     -1.489135      0.782754
H       3.361323     -0.750457      0.779735
H       2.859339      0.970415      0.761143
H       3.112963      0.106883     -0.776245
H       0.864716      1.463896     -0.676777
H      -3.397494     -1.091936      0.198521
H      -2.838516      0.450853      0.892616
H      -3.839463      0.423328     -0.587215
