11
smiles: [C:3](=[O:4])([H:9])[H:10].[O:1]([C:2](=[C:5]=[N:6][H:11])[H:8])[H:7]
O        0.26497400       2.27332100       0.78383500
C       -0.06505000       1.29378200      -0.12179100
C        1.29948500      -1.73057700      -0.09179100
O        1.87677300      -1.68121600      -1.13786900
C       -1.08186900       0.47553200      -0.02786900
N       -1.93523400      -0.39329700       0.13269500
H       -0.18672100       2.11068800       1.61448100
H        0.57533200       1.26511800      -0.99131000
H        1.75017500      -1.34960800       0.84466300
H        0.28297900      -2.15998400      -0.00400800
H       -2.84674700      -0.14720900      -0.25294100
