17
Extracted from Q-Chem output
C       1.433783     -0.780292     -0.125063
C       0.071901     -0.112834      0.033204
C      -0.562652      0.312926     -1.304356
C      -1.291761      1.609061     -1.064039
C      -0.888671     -1.023175      0.801100
O      -0.850958      2.072344      0.063883
C       0.172590      1.247667      0.712610
H       2.124901     -0.143874     -0.682184
H       1.339801     -1.724994     -0.664642
H       1.884626     -1.000737      0.845929
H       0.192429      0.557298     -2.064564
H      -1.218068     -0.434850     -1.753732
H      -1.863871     -0.548604      0.932997
H      -1.044217     -1.960227      0.262156
H      -0.492927     -1.266688      1.790021
H       1.130565      1.743762      0.543182
H      -0.048523      1.244545      1.779564
