16
Extracted from Q-Chem output
C      -0.625219      2.128130      0.079421
C      -0.371444      0.668867      0.066836
C       0.754489     -0.024499     -0.578718
C       0.896352     -1.286746      0.324440
C       1.939443     -1.940544      0.790418
C      -0.549663     -1.542403      0.734480
N      -1.100394     -0.176711      0.726687
H       0.249450      2.628239      0.501711
H      -1.505235      2.397642      0.663611
H      -0.741916      2.496048     -0.941232
H       1.645495      0.597771     -0.667882
H       0.445603     -0.328853     -1.588825
H       2.897456     -1.548922      0.413945
H      -1.110791     -2.142117      0.009135
H      -0.636326     -1.989682      1.724243
H      -1.901107      0.108241      1.269685
