17
Extracted from Q-Chem output
C      -1.863191     -0.049817     -0.132608
C      -0.797707      0.955476     -0.537985
O      -0.684539      2.003117      0.415178
C       1.195755     -2.414388      1.026247
C       0.580982      0.347892     -0.830957
C       1.383256     -0.100196      0.369615
O       0.741866     -1.211432      1.052239
H      -2.827190      0.452656     -0.039377
H      -1.961936     -0.838086     -0.880853
H      -1.620167     -0.529385      0.817560
H      -1.124972      1.443141     -1.461120
H      -0.884608      1.649776      1.284455
H       2.145960     -2.392145      0.420333
H       0.475935     -0.480873     -1.537590
H       1.183247      1.114156     -1.327425
H       1.465499      0.698565      1.107037
H       2.383641     -0.429825      0.075564
