11
Extracted from Q-Chem output
N       2.213167      0.294319     -0.057765
C       0.817219      0.076496     -0.022183
N       1.126297     -1.154913     -0.121626
N      -1.150707     -1.284055     -0.046258
C      -1.309320     -0.021873      0.049356
O      -2.508138      0.576545      0.136697
N      -0.225986      0.833502      0.070027
H       2.716854      0.431928      0.801184
H       2.653326      0.558189     -0.922130
H      -2.011023     -1.816514     -0.052507
H      -2.349519      1.524135      0.197245
