16
Extracted from Q-Chem output
O      -2.408859     -0.943637      0.821987
C      -1.319032     -0.740649     -0.032169
C      -0.905889      0.697830     -0.415102
C       0.538492      0.210939     -0.351283
C       1.574994      0.365061     -1.385695
N       1.677120      1.068841      0.016251
C       0.113384     -0.993858      0.493160
H      -2.295650     -0.398597      1.603505
H      -1.518167     -1.338856     -0.920755
H      -1.147793      1.391833      0.397276
H      -1.248230      1.104373     -1.365033
H       1.556463      2.069376      0.013411
H       2.277701     -0.474281     -1.307499
H       2.273177      0.726445      0.755540
H       0.581299     -1.954683      0.280712
H       0.162430     -0.792002      1.568629
