16
Extracted from Q-Chem output
C       1.971003      0.889001     -0.062308
C       1.001713     -0.145131     -0.570334
C       0.146426     -0.844197      0.491395
C      -1.142949     -0.705050     -0.276662
C      -2.244277      0.016865      0.384881
O      -0.038428      0.499219     -1.343367
H       2.454209      1.400209     -0.896610
H       1.448210      1.632801      0.541399
H       2.742268      0.416850      0.550651
H       1.525444     -0.869082     -1.204849
H       0.411737     -1.884504      0.691242
H       0.162155     -0.288607      1.437579
H      -0.717357     -0.376078     -1.516089
H      -2.713336     -0.747824      1.021790
H      -1.920884      0.830379      1.044459
H      -3.006433      0.367589     -0.309828
