13
Extracted from Q-Chem output
C       1.190301     -0.444653      0.504245
C       0.600703      0.699917     -0.268847
C       0.554117     -0.684128     -0.794192
C      -1.563915     -0.268755     -0.431828
N      -1.567943      0.109464      0.868073
C      -0.865091      0.988813     -0.039832
H       2.273439     -0.453067      0.548565
H       0.733675     -0.800588      1.429087
H       1.248681      1.486284     -0.632915
H       0.984362     -1.080692     -1.701348
H      -1.093767     -1.149494     -0.953370
H      -1.136958     -0.399205      1.628704
H      -1.292968      1.973150     -0.187019
