17
Extracted from Q-Chem output
C       2.144862     -0.330805     -0.110889
C       1.126902      0.769169      0.162945
C      -0.102806      0.301119      0.938466
O      -0.915795      1.401379      1.297569
C      -2.385997     -0.721670      0.136839
C      -1.791258     -0.397435     -0.960153
C      -0.892862     -0.764524      0.183769
H       1.745391     -1.098174     -0.776701
H       2.454274     -0.821631      0.815648
H       3.041284      0.076605     -0.580801
H       0.789211      1.210576     -0.782453
H       1.591590      1.576256      0.734840
H       0.225089     -0.131795      1.890073
H      -3.298410     -0.880204      0.684201
H      -1.860090     -0.094175     -1.990612
H      -1.436220      1.654995      0.530325
H      -0.398317     -1.736072      0.165503
