12
Extracted from Q-Chem output
C      -1.075719      0.524007     -0.060284
C       0.242298      1.250609      0.061388
C       1.279788      0.420740      0.032812
C       0.803445     -0.989404     -0.045915
O       0.006677     -1.373172      1.081308
C      -0.659475     -0.933286     -0.089675
H      -1.743093      0.734659      0.779694
H      -1.606318      0.801988     -0.975596
H       0.306922      2.324148      0.188798
H       2.321583      0.702818      0.102134
H       1.393502     -1.784168     -0.486890
H      -1.269609     -1.678940     -0.587774
