19
smiles: [C:1]([O:2][C:3](=[C:4]([H:12])[H:13])[H:11])([H:8])([H:9])[H:10].[C:5](=[C:6]([C:7]([H:17])([H:18])[H:19])[H:16])([H:14])[H:15]
C        1.86577200      -0.28525100      -0.88186000
O        2.03042300      -0.54675900       0.49380000
C        1.73571300       0.45770100       1.34020700
C        1.30118200       1.67762600       1.04420200
C       -2.28121100       0.29257800      -1.27282900
C       -1.83046900      -0.06210300      -0.07966200
C       -1.52005500      -1.46315100       0.34114700
H        2.50731700       0.54161000      -1.20286200
H        0.82397000      -0.04143900      -1.11362600
H        2.15269700      -1.19371400      -1.40663700
H        1.90355500       0.14391600       2.36432900
H        1.11125900       2.37103900       1.85039500
H        1.12409900       2.02102800       0.03475500
H       -2.46154000      -0.44191000      -2.05130700
H       -2.48700700       1.32783100      -1.51627000
H       -1.66480000       0.71003100       0.66838100
H       -2.12477700      -1.75324700       1.20440900
H       -1.71061100      -2.17352800      -0.46435200
H       -0.47323700      -1.55719300       0.64160500
