19
Extracted from Q-Chem output
C       1.970863     -0.733426     -0.452420
O       1.270816     -0.565024      0.773382
C       0.534798      0.536184      0.924281
C       0.646348      1.742981      0.177932
C      -1.318009      1.026691      0.016801
C      -1.393331     -0.299021      0.477795
C      -1.351710     -1.481766     -0.442989
H       2.701299      0.061976     -0.597573
H       1.275803     -0.754523     -1.294789
H       2.473574     -1.694174     -0.375500
H       0.228684      0.640743      1.956825
H       0.831619      2.641606      0.753769
H       1.019259      1.726134     -0.835062
H      -1.314966      1.210100     -1.051317
H      -1.754016      1.831225      0.594151
H      -1.781535     -0.467046      1.475286
H      -2.305910     -2.020128     -0.457223
H      -1.148280     -1.176740     -1.474662
H      -0.585020     -2.213788     -0.163887
