8
Extracted from Q-Chem output
N       2.650771      0.557213      0.370260
C       1.508566      0.315399      0.167673
C       0.124411     -0.024464      0.525294
C      -1.115810     -0.497087     -0.058856
O      -0.936225      0.756243      0.666467
H       0.929919      0.348291     -0.865328
H      -1.338913     -0.356986     -1.110430
H      -1.680825     -1.254869      0.470673
