11
Extracted from Q-Chem output
N      -2.769806      1.258435      0.516135
C      -1.518473      1.224420      0.511652
O      -0.883344      0.072827      0.213290
C       1.931622     -1.996214     -0.342012
C       1.192258     -0.965946     -0.064150
C       0.490281      0.091390      0.220891
H      -3.095553      2.187278      0.758062
H      -0.841580      2.057535      0.731522
H       2.249307     -2.202693     -1.358612
H       2.244319     -2.689650      0.431455
H       0.961401      1.035003      0.479085
