17
Extracted from Q-Chem output
C       1.720816     -1.274031     -0.181156
C       0.947745      0.013811     -0.432088
C      -0.310081      0.160977      0.426200
C      -1.015702      2.289289      1.054145
N      -0.915647      1.448683      0.125731
C      -1.341821     -0.927767      0.159820
H       1.966365     -1.390640      0.877792
H       1.156848     -2.155604     -0.490721
H       2.658540     -1.275508     -0.738930
H       1.593902      0.873240     -0.231762
H       0.656667      0.086420     -1.484145
H      -0.012801      0.115910      1.488145
H      -0.670663      2.095255      2.078843
H      -1.463766      3.260974      0.852607
H      -0.948961     -1.912617      0.415503
H      -1.630115     -0.927292     -0.893534
H      -2.239138     -0.757647      0.756679
