13
Extracted from Q-Chem output
C       1.612494     -0.481811     -0.103093
C       0.149835     -0.130755     -0.033670
C      -0.261618      1.303452      0.116433
N      -0.386696      0.643902     -1.160460
C      -0.692501     -1.059026      0.744551
O      -1.942015     -0.952152      0.341909
H       1.761555     -1.381527     -0.702457
H       2.174886      0.329622     -0.565095
H       2.003701     -0.670363      0.897190
H      -1.159132      1.521759      0.685474
H       0.531432      2.038691      0.196763
H      -1.354624      0.384895     -1.319866
H      -2.481995     -1.530034      0.888493
