10
Extracted from Q-Chem output
N      -1.404022     -0.359692     -0.219097
C      -0.702361     -0.788814      0.839120
O      -1.086393     -1.492902      1.724078
O       0.631653     -0.359502      0.906354
C       1.283864      0.429340      0.038958
N       0.805510      0.936536     -1.009350
H      -0.975235      0.241158     -0.910663
H      -2.359461     -0.658805     -0.275177
H       2.305722      0.559854      0.396471
H       1.500723      1.492827     -1.490692
