11
Extracted from Q-Chem output
C       1.923469      0.266103      0.070127
C       0.853064     -0.785958      0.081550
N      -0.322656     -0.381957      0.771084
C      -1.376103     -0.057843      0.265132
C      -2.531674      0.305268     -0.215148
O       0.962004     -1.889140     -0.365989
H       2.153356      0.564416      1.093819
H       1.563657      1.152327     -0.456186
H       2.812826     -0.124345     -0.417349
H      -2.741022      1.349064     -0.398582
H      -3.278917     -0.442756     -0.436853
