16
smiles: [C-:2]1=[C:6]([H:16])[C+:5]([H:15])[C:4]([H:13])([H:14])[C:3]1([H:11])[H:12].[C:1]([H:7])([H:8])([H:9])[H:10]
C        2.42465400      -0.66700700       0.44621500
C       -0.26308400       0.57660600      -1.52686400
C       -1.03446700      -0.58726900      -1.00127500
C       -1.57644900      -0.25619800       0.39607600
C       -1.11309800       1.14383600       0.56864900
C       -0.40805400       1.58202400      -0.49696000
H        1.66634400      -1.35455000       0.81779700
H        2.41740700       0.24177900       1.04604200
H        3.40434000      -1.13798400       0.51118100
H        2.21033600      -0.41818700      -0.59210500
H       -1.82773100      -0.79772500      -1.72875600
H       -0.40301900      -1.48078800      -1.02966600
H       -1.16672300      -0.90114700       1.18017700
H       -2.66531200      -0.32674900       0.48475000
H       -1.32851700       1.72589900       1.46085600
H        0.02063900       2.57466000      -0.56964200
