16
smiles: [C:1]([O:2][C:3](/[C:4](=[N:5]\[H:15])[H:13])([H:11])[H:12])([H:8])([H:9])[H:10].[C:6](=[O:7])([H:14])[H:16]
C       -2.81283900       0.61675100       1.00985400
O       -1.53730700       0.07007600       0.79243600
C       -0.81196400       0.74458500      -0.19023800
C        0.53365500       0.10122200      -0.37571400
N        0.97537600      -0.90420200       0.23923400
C        3.41633800      -1.15628800      -0.90820100
O        3.41292400      -0.22442600      -1.65757200
H       -2.74836400       1.65734400       1.35200500
H       -3.42111000       0.58455900       0.09727900
H       -3.29672100       0.01964700       1.78081100
H       -0.66393300       1.80288500       0.07840300
H       -1.34428000       0.73464600      -1.15492600
H        1.16822500       0.57786100      -1.12799900
H        3.04587500      -2.15380000      -1.21303500
H        0.27387400      -1.23438100       0.90433900
H        3.79069600      -1.07114700       0.12999900
