16
Extracted from Q-Chem output
C      -2.302111      0.006742      1.005413
O      -0.922993     -0.008759      0.723537
C      -0.608149      0.547685     -0.517221
C       0.879774      0.520410     -0.705392
N       1.758842      0.585739      0.297382
C       2.263374     -0.916450     -0.365362
O       3.311385     -0.959582     -0.964701
H      -2.695256      1.030383      1.012648
H      -2.864736     -0.583291      0.272220
H      -2.433575     -0.433102      1.992073
H      -0.927775      1.601998     -0.576228
H      -1.100428      0.011275     -1.339617
H       1.242077      0.827694     -1.685203
H       1.203631     -1.004951     -1.047438
H       1.298669      0.419105      1.188454
H       1.916179     -1.511335      0.489730
