11
smiles: [C:2](=[O:3])=[C:4]([H:9])[H:10].[N:1]([C:5](=[O:6])[H:11])([H:7])[H:8]
N       -0.73390700      -0.82722700      -1.30391100
C       -0.18966200       1.72989900       1.63768900
O       -0.69348300       2.76950100       1.64126800
C        0.38036500       0.55323100       1.63333800
C        0.50580800      -0.90103700      -1.84257200
O        1.51411000      -0.51693700      -1.30447200
H       -0.84853000      -0.42572200      -0.38959100
H       -1.53819800      -1.16148300      -1.79967100
H        1.06252000       0.29928400       0.83738500
H        0.16043500      -0.14357300       2.42657100
H        0.50492900      -1.36053500      -2.84799000
