11
Extracted from Q-Chem output
N      -0.848499     -0.376057     -0.631346
C      -0.608619      0.698017      0.459069
O      -1.251529      1.705177      0.389649
C       0.636100      0.295489      0.969084
C       0.694340     -0.369440     -0.985249
O       1.239770     -1.428704     -1.157768
H      -1.096723     -1.301155     -0.291912
H      -1.488673     -0.066101     -1.356226
H       0.755666     -0.736380      1.272911
H       1.202744      1.024245      1.535469
H       0.889811      0.570311     -1.515636
