12
Extracted from Q-Chem output
O      -1.216922     -2.338148     -0.688188
C      -0.209317     -1.506065     -0.605128
C      -0.706189     -0.260979      0.057480
C       0.150116      0.937868     -0.243134
O       0.141078      1.981023      0.717670
C       1.341592      1.244621      0.535178
H      -0.898679     -3.159169     -1.078506
H      -1.764968     -0.065680     -0.151618
H      -0.632228     -0.481429      1.132652
H       0.117497      1.288224     -1.272825
H       1.617375      0.591818      1.358981
H       2.160154      1.792277      0.078306
