11
Extracted from Q-Chem output
C      -1.635258     -0.048741      0.069068
N      -0.215532     -0.102862     -0.197750
C       0.540607      0.936636     -0.200336
N       1.868517      0.788250     -0.116297
N       2.295210     -0.418130      0.793432
C       1.573764     -1.032317      0.048248
H      -2.167501     -0.728969     -0.597674
H      -2.035444      0.960660     -0.073496
H      -1.850290     -0.349875      1.097678
H       0.190979      1.962819     -0.317523
H       1.417741     -1.940202     -0.507360
