11
Extracted from Q-Chem output
C      -1.280948     -0.638495      0.260892
C      -0.263057      1.299711     -0.083187
O      -0.541570      2.393597     -0.012618
N       1.728763      0.616457     -0.736192
C       1.552966     -0.408812      0.055737
O       0.651703     -1.287103     -0.087786
H      -1.629988     -0.694208     -0.759740
H      -1.812940      0.071145      0.883137
H      -1.134718     -1.587202      0.750285
H       1.193414      0.443954     -1.588573
H       2.154267     -0.423515      0.974096
