9
Extracted from Q-Chem output
N      -0.967368     -0.326966      0.849282
C      -0.336238      0.656528     -0.028731
N       1.113708      0.613830      0.000779
C       0.409228     -0.448558     -0.642984
O      -0.135226     -1.379452      0.282095
H      -0.680500     -0.218136      1.822608
H      -0.865350      1.533353     -0.370953
H       1.525820      0.358823      0.892795
H       0.651574     -0.796789     -1.636370
