9
Extracted from Q-Chem output
N      -0.996837     -0.367584      0.908668
C      -0.381761      0.555231      0.059293
N       1.048490      0.638690     -0.182140
C       0.563605     -0.611777     -0.617125
O       0.394074     -1.481113      0.335498
H      -1.275765      0.099002      1.794565
H      -0.922070      1.483044     -0.118932
H       1.583502      0.540041      0.678641
H       0.489856     -0.875125     -1.665589
