13
smiles: [H:12][H:13].[O:1]([C@@:2]1([H:8])[C:3]([H:9])([H:10])[C@:6]12[C:4]([H:11])=[N:5]2)[H:7]
O        1.46884500       1.01125500       0.35297400
C        0.75953200       0.16683000      -0.49690800
C        0.99848900      -1.35042800      -0.40773700
C       -1.63640900      -0.90423800       0.34349700
N       -0.96049700      -0.70639900       1.38003500
C       -0.25221900      -0.73094000       0.06007500
H        0.99338700       1.07546800       1.18502900
H        0.62390400       0.59164000      -1.48667600
H        1.71441200      -1.66199700       0.34449100
H        1.00504500      -1.92624800      -1.32611000
H       -2.66548900      -1.08884700       0.06639100
H       -0.71389600       2.67896900      -0.01928800
H       -1.38788400       2.99447000      -0.04407400
