13
Extracted from Q-Chem output
O       1.865980      0.686103      0.452177
C       1.037242      0.204521     -0.539560
C       0.441425     -1.151039     -0.376056
C      -1.166565     -0.562859      0.335550
N      -0.832409      0.311022      1.219365
C      -0.442638      0.464335     -0.392265
H       1.326706      0.730196      1.255929
H       1.432786      0.447889     -1.518543
H       0.779055     -1.723629      0.478341
H       0.222246     -1.699932     -1.283300
H      -1.967834     -1.278543      0.190635
H      -1.457375      1.826262      0.469605
H      -1.259577      1.842658     -0.326398
