10
smiles: [C:1]1([H:7])=[C:2]([H:8])[C:5]([H:9])=[C:6]1[H:10].[N:3]#[N:4]
C        0.60403100       1.74018400      -0.13632400
C        0.66778800       0.17535300      -0.12726800
N        0.59598100      -3.65221500       0.00087500
N       -0.48729900      -3.70111300       0.09226900
C       -0.63425200       0.12362600       0.11792600
C       -0.69806800       1.68814800       0.10883800
H        1.32425100       2.53192300      -0.28297600
H        1.44863900      -0.55823900      -0.26611000
H       -1.35450600      -0.66835300       0.26404400
H       -1.48029200       2.42028900       0.24729300
