10
Extracted from Q-Chem output
C       0.450317      0.963009     -0.508561
C       0.882797     -0.399263     -0.052781
N       0.650996     -1.852332     -0.136997
N      -0.557234     -1.875551      0.211542
C      -0.861171     -0.440206      0.070556
C      -0.497782      0.958994      0.471553
H       0.864909      1.693359     -1.194610
H       1.535340     -0.316419      0.820445
H      -1.516050     -0.424870     -0.804912
H      -0.952547      1.695436      1.124823
