14
Extracted from Q-Chem output
O       1.207767      0.179149      0.523674
C       0.316406      0.893358     -0.220345
C      -0.833565      0.001263     -0.613624
C      -0.731852     -1.132161      0.406023
C       0.768565     -1.170938      0.661007
C       0.505211      2.173835     -0.505718
H      -1.785562      0.528355     -0.599740
H      -0.672305     -0.376925     -1.627174
H      -1.262669     -0.869610      1.323061
H      -1.120858     -2.082541      0.042264
H       1.288029     -1.793570     -0.076073
H       1.041432     -1.511314      1.659643
H       1.390419      2.695723     -0.169809
H      -0.231196      2.712160     -1.084319
