17
Extracted from Q-Chem output
O      -0.862043      0.433402      2.736872
C       1.245924     -0.345352     -1.840580
C       0.704603     -1.552242     -1.725764
C      -1.137845     -0.262960      1.536842
C      -0.871644      0.569059      0.284359
C       0.552782      1.012445      0.160067
C       1.440679      0.625496     -0.754475
H      -1.484051      1.158663      2.818425
H       1.623824     -0.038784     -2.813664
H       0.609325     -2.208022     -2.582509
H       0.362099     -1.935616     -0.771325
H      -2.174585     -0.622691      1.524688
H      -0.486118     -1.138875      1.548574
H      -1.175416     -0.008112     -0.591573
H      -1.515726      1.456740      0.320126
H       0.878811      1.741596      0.895343
H       2.418717      1.099519     -0.733068
