17
Extracted from Q-Chem output
O       0.726391     -0.794200      1.206706
C       1.263198     -0.537996     -0.223215
C       0.370454     -1.317386     -1.036910
C      -1.114400     -0.564521      0.805062
C      -1.292635      0.798759      0.187977
C      -0.048191      1.522304     -0.265608
C       1.121310      0.927949     -0.469872
H       1.087647     -0.143874      1.837212
H       2.301897     -0.866423     -0.116271
H       0.522539     -2.391117     -1.085167
H      -0.034307     -0.859011     -1.930186
H      -1.249541     -0.583962      1.884472
H      -1.617591     -1.389372      0.332150
H      -1.933176      0.681586     -0.692933
H      -1.834885      1.444694      0.889019
H      -0.168220      2.579771     -0.478525
H       1.973138      1.487526     -0.838336
