13
Extracted from Q-Chem output
C      -1.287039      0.587154      0.141681
C      -0.461308     -0.686558      0.107112
O      -0.783200     -1.479616     -1.031225
C       1.029354     -0.484535      0.170545
C       1.666667      0.671086      0.276886
H      -1.135334      1.135224      1.073365
H      -2.343888      0.333814      0.059590
H      -1.028476      1.247766     -0.690152
H      -0.749925     -1.314534      0.956254
H       1.599688     -1.407271      0.098239
H      -0.467809     -1.016430     -1.811383
H       1.142329      1.616986      0.350724
H       2.748885      0.712913      0.300381
