11
smiles: [C:1](=[C:2]=[C:3]=[C:4]([C:5]#[N:6])[H:11])([H:7])[H:9].[H:8][H:10]
C       -2.26336600      -0.61109200      -0.95837700
C       -1.00289000      -0.74305100      -0.64036700
C        0.21559000      -0.86370800      -0.33218600
C        1.48397400      -0.99678200      -0.01210800
C        2.29398900       0.12044900       0.35756700
N        2.96699800       1.00205100       0.65793200
H       -2.74001100       0.36213400      -0.95104000
H       -0.44302900       2.68186900       0.38769200
H       -2.86258200      -1.47020200      -1.23639300
H        0.27896400       2.55045600       0.51399200
H        1.96463500      -1.96887200      -0.01814800
