11
Extracted from Q-Chem output
C      -1.527072     -0.098820     -0.719961
C      -0.234972     -0.043370     -0.014589
O      -0.199112      0.240010      1.257788
C       1.098556     -0.197042     -0.403299
C       1.256676      0.471188      1.322611
N       2.064374      0.827561      2.090166
H      -2.242632      0.613266     -0.312707
H      -1.936212     -1.107086     -0.603591
H      -1.377984      0.072924     -1.784518
H       1.443568      0.040856     -1.403679
H       1.549506     -1.101796      0.006040
