15
Extracted from Q-Chem output
C      -0.365644      1.212371      0.245887
C      -0.738594     -0.233046      0.548724
C      -0.859690     -1.151899     -0.669283
O       0.434487     -1.747732     -0.431088
C       0.609578     -0.961217      0.773813
C       1.757685     -0.099994      0.322929
C       1.100682      1.113211     -0.220122
H      -0.432949      1.816772      1.153919
H       1.711086      2.006130     -0.067957
H      -1.020375      1.672322     -0.497459
H      -1.515156     -0.352364      1.300814
H      -0.905057     -0.659374     -1.645751
H      -1.642912     -1.910975     -0.609426
H       0.767834     -1.565499      1.667982
H       1.180719      0.931322     -1.305771
