15
Extracted from Q-Chem output
C      -0.443791      1.187717      0.004237
C      -0.628976     -0.188172      0.535250
C      -1.093637     -1.259678     -0.450721
O       0.209251     -1.838284     -0.570184
C       0.753112     -0.982398      0.448225
C       1.857107     -0.149232     -0.084190
C       1.503432      1.125945     -0.219115
H      -0.843368      2.002553      0.607750
H       0.871495      1.469181      0.679024
H      -0.670081      1.348171     -1.044757
H      -1.113347     -0.201868      1.509194
H      -1.463620     -0.894605     -1.413707
H      -1.815301     -1.970008     -0.036138
H       1.032424     -1.553360      1.339163
H       1.926992      1.974066     -0.736818
