13
Extracted from Q-Chem output
C      -2.204569      0.138858     -0.079330
O      -1.090094     -0.608460      0.393657
C       0.108933     -0.138191     -0.013754
C       0.515905      1.168442     -0.518487
N       1.913948      1.144141     -0.351715
C       2.253565      0.060290      0.289232
N       1.228751     -0.768725      0.548470
H      -2.124421      1.183583      0.222485
H      -3.083573     -0.326654      0.359890
H      -2.265982      0.093607     -1.170487
H       0.230628     -0.150796     -1.215212
H       3.267299     -0.192114      0.578279
H       1.253200     -1.669220      0.992790
