10
Extracted from Q-Chem output
O      -0.280428     -1.353884      0.656280
C      -0.795390      0.549777     -1.463293
C      -0.184073      1.010191     -0.245227
O       1.031316      0.364781      0.139187
C       0.983791     -0.902026      0.537431
O       1.955822     -1.547410      0.784488
H      -0.215513     -2.276797      0.923829
H      -1.722952      1.144617     -1.554034
H      -0.847226      1.120291      0.621428
H       0.114346      2.037181     -0.535805
