13
Extracted from Q-Chem output
C      -2.773674      0.338632     -0.446706
C      -0.640223     -0.438513      0.260726
N      -1.742951     -0.638424     -0.161015
O       1.498372      0.074352     -1.450370
C       1.683532     -0.075706     -0.259096
N       2.931801     -0.012197      0.292348
C       0.594580     -0.308922      0.709260
H      -3.675187      0.061801      0.098485
H      -2.473443      1.353244     -0.178330
H      -2.996426      0.294343     -1.512095
H       3.103548     -0.313291      1.232817
H       3.707699      0.039978     -0.342993
H       0.771327     -0.367383      1.774827
