11
smiles: [C:2](=[O:3])=[C:4]([C:5](=[O:6])[H:11])[H:9].[N:1]([H:7])([H:8])[H:10]
N       -1.99941200      -0.48056800       0.93763700
C       -0.00603400       0.85293900      -0.77840000
O       -0.81819300       1.59275800      -1.10898000
C        0.94616500       0.01297200      -0.41307000
C        2.28955100       0.13462900      -0.97328500
O        3.19941000      -0.59578700      -0.67926300
H       -2.26689000      -1.43032800       0.71675500
H       -2.76508600       0.12232200       0.66856700
H        0.71038100      -0.75809200       0.30720000
H       -1.90072300      -0.41748800       1.94198300
H        2.42796900       0.95652300      -1.70272000
