10
Extracted from Q-Chem output
O       2.155288     -1.110471      0.143017
C       1.354301     -0.325056     -0.264845
N       0.184120      0.518165      0.999908
C      -0.972641      0.797554      0.404580
C      -0.194091     -0.556683     -0.139628
H       1.581984      0.513911     -0.940285
H      -1.921404      0.469617      0.849313
H      -1.081631      1.580880     -0.361925
H      -0.496199     -0.360139     -1.176874
H      -0.549297     -1.498545      0.256334
