15
smiles: [C:1]1([H:8])([H:9])[C@@:2]2([H:10])[O:3][C:4]([H:11])([H:12])[C-:5]([H:14])[O+:6]=[C:7]12.[H:13][H:15]
C       -1.82433900       0.00888700       0.94743400
C       -1.16555700       0.35686200      -0.37825700
O       -0.26350800       1.42640500      -0.40588100
C        1.05709700       0.93518800      -0.61618000
C        1.41085000       0.01707700       0.48610100
O        0.48617600      -0.68431300       1.01353800
C       -0.73317800      -0.83557500       0.38757500
H       -1.58571700       0.67591500       1.77029000
H       -2.84437800      -0.35558600       0.93039000
H       -1.73022700       0.23543600      -1.29847900
H        1.74055400       1.78520600      -0.62568600
H        1.11519200       0.43650800      -1.59411700
H        1.37447100      -2.24950800      -1.19750000
H        2.38731800      -0.07528400       0.94233300
H        0.66536600      -2.24344800      -0.97066700
