16
Extracted from Q-Chem output
C       1.364135     -0.825003     -0.053182
C       0.199773      0.156268     -0.090007
C       0.647363      1.569082     -0.416445
N      -0.969014     -0.299378     -0.897110
C      -1.785133     -0.612814      0.295276
C      -0.697164      0.028341      1.147965
O      -0.581620      0.324605      2.295552
H       2.108675     -0.508417      0.678524
H       1.846405     -0.869998     -1.033001
H       1.033187     -1.831110      0.215046
H       1.141281      1.590761     -1.390410
H       1.347870      1.931580      0.338092
H      -0.208416      2.243033     -0.454842
H      -0.769886     -1.101323     -1.478562
H      -2.758733     -0.119246      0.323255
H      -1.918722     -1.676382      0.519849
