14
smiles: [C:2]1([H:9])=[C:5]([H:13])[N:4]([H:12])[C:3]1([H:10])[H:11].[O:1]([C:6](=[O:7])[H:14])[H:8]
O        1.44224300      -1.69112000       1.68179900
C       -0.73978600      -0.30760100      -1.39365900
C       -1.19965300       1.00066300      -0.79698700
N        0.22957000       1.43379100      -0.85457600
C        0.52170800       0.12531800      -1.32361800
C        0.34014200      -0.93977400       1.76466900
O        0.32197800       0.21798400       2.05657800
H        2.19709100      -1.12645000       1.89744400
H       -1.23846900      -1.16489100      -1.81517800
H       -1.59318700       0.94390500       0.22009000
H       -1.84995100       1.62575700      -1.41180200
H        0.64506900       1.70383900       0.02865000
H        1.50264100      -0.25636100      -1.57825500
H       -0.54425600      -1.54436600       1.52488800
