11
Extracted from Q-Chem output
C      -1.301225     -0.247982     -0.042881
C       0.128213      0.159943     -0.219179
C       1.268296     -0.536426      0.374818
O       0.972171     -0.571052     -1.018043
C       0.085077      1.800482     -0.878261
N       0.531849      1.915229      0.212710
H      -1.869347     -0.044861     -0.948899
H      -1.338467     -1.316593      0.174830
H      -1.744308      0.301828      0.785880
H       2.153672      0.022451      0.649830
H       1.086352     -1.465392      0.907033
