14
Extracted from Q-Chem output
C       1.281881      0.333040     -0.644252
C       0.553283      0.206689      1.058566
C      -0.803413      0.854538      0.910433
O      -1.463718      0.372338     -0.258996
C      -0.922321     -0.903501     -0.524703
C       0.511362     -0.816401     -0.020915
H       0.756105      0.862024     -1.431674
H       2.329622      0.121581     -0.827253
H       1.410992      1.064862      0.291421
H      -0.802961      1.944421      0.884920
H      -1.346003      0.535778      1.813077
H      -1.011558     -1.096402     -1.595806
H      -1.462791     -1.690468      0.019107
H       1.055307     -1.747299      0.094961
