16
Extracted from Q-Chem output
C       1.659225     -0.308583      0.241175
C       0.255493      0.002457     -0.219480
C      -0.265164      1.335453     -0.007707
C      -0.754856      0.202063      0.979032
C      -2.108112     -0.120489      0.788447
C      -0.210453     -0.791532     -1.413535
H       1.942796      0.283201      1.112876
H       2.370265     -0.088791     -0.558864
H       1.757982     -1.365699      0.496096
H       0.340747      2.080145      0.492220
H      -1.031976      1.715328     -0.667255
H      -0.253895      0.239617      1.946024
H      -2.568573     -0.274767      1.781504
H      -1.256265     -0.589220     -1.633529
H       0.398416     -0.530989     -2.283395
H      -0.100155     -1.862443     -1.230608
