16
Extracted from Q-Chem output
C       1.753028     -0.291881      0.276742
C       0.334013      0.063593     -0.060629
C      -0.143557      1.490324      0.016962
C      -0.758386      0.447775      0.891353
C      -1.990759     -0.191188      0.295120
C      -0.414524     -0.801480     -1.054882
H       2.147267      0.367996      1.051359
H       2.395340     -0.196534     -0.604019
H       1.830209     -1.320306      0.638763
H       0.553931      2.183478      0.470815
H      -0.751227      1.905035     -0.780184
H      -0.636795      0.461510      1.968043
H      -2.079151     -1.208444      0.712156
H      -1.583384     -0.453059     -0.990437
H      -0.213561     -0.615458     -2.114195
H      -0.352521     -1.864941     -0.838320
