17
Extracted from Q-Chem output
C       2.171092     -0.658205      1.048390
C       1.379661     -0.054688     -0.110290
C       0.255285     -0.967050     -0.528653
C      -1.500488      0.615691     -0.559039
N      -0.966905     -0.724058     -0.724606
C      -2.141817      0.762295      0.814101
H       1.543991     -0.767599      1.935399
H       2.556598     -1.646919      0.789962
H       3.020585     -0.027071      1.312378
H       1.012884      0.934483      0.162828
H       2.043684      0.078958     -0.971380
H       0.558834     -2.010330     -0.668403
H      -2.263035      0.751674     -1.329308
H      -0.753220      1.402756     -0.711560
H      -2.887213     -0.018722      0.970872
H      -2.630132      1.733439      0.911662
H      -1.392347      0.672740      1.603902
