9
Extracted from Q-Chem output
C      -1.043673     -0.203814      0.020423
C       0.668335      0.647398      0.029984
O       0.602536      1.816686      0.128170
N       1.423221     -0.404037     -0.082895
H      -1.420597      0.171709      0.967244
H      -1.343294     -1.264170     -0.051812
H      -1.482297      0.311271     -0.829175
H       2.430269     -0.269278     -0.108497
H       0.152415     -0.808118     -0.070783
