12
smiles: [H:8][H:11].[N-:1]([C:2]1=[C:3]([H:10])[O+:4]=[N:5][C:6]1=[N:7][H:12])[H:9]
N        0.85710900       1.39523100      -0.12055400
C        0.87815100       0.14904000       0.09161600
C        2.04408900      -0.70664200       0.13030600
O        1.66454200      -1.89414500       0.36923000
N        0.30067000      -2.08089500       0.52727900
C       -0.23160600      -0.82867600       0.36120600
N       -1.44919000      -0.45541900       0.40883100
H       -2.64056200       2.64529100      -0.52772700
H       -0.11483300       1.71699000      -0.08657900
H        3.09892400      -0.51771400      -0.00167500
H       -2.52121800       1.93363100      -0.34399100
H       -2.06620400      -1.24169400       0.60101400
