6
Extracted from Q-Chem output
O      -0.985324      1.392392      0.617987
C      -0.797575      0.305923      0.151874
C       0.861121     -1.398640     -0.576867
C       0.571711     -0.239596     -0.076577
H      -1.627583     -0.357594     -0.135616
H       1.428928      0.379911      0.194644
