6
Extracted from Q-Chem output
O      -0.766099      1.454405      0.105908
C      -0.736187      0.274410      0.012494
C       0.383351     -0.864931     -1.019644
C       0.820373     -0.380408      0.053922
H      -1.589558     -0.393815      0.164178
H       1.455895     -0.013213      0.836383
