13
Extracted from Q-Chem output
C       0.700826      0.728048     -0.027587
C      -0.711240      0.824502     -0.535268
C      -1.506702     -0.185779     -0.858423
O       0.424333     -1.060423      1.613986
C       1.122587     -0.649379      0.456291
H       1.381324      1.053126     -0.823248
H       0.832952      1.442298      0.791006
H      -1.095317      1.835373     -0.647871
H      -0.516432     -0.964407      1.446954
H      -2.509315     -0.010652     -1.227887
H      -1.194643     -1.222795     -0.785249
H       2.177646     -0.631541      0.733372
H       1.013817     -1.387514     -0.349956
