13
Extracted from Q-Chem output
C       0.797100      0.744690     -0.170884
C      -0.700659      0.861570     -0.130150
C      -1.267622     -0.344984     -0.586868
O      -0.260291     -1.172310      0.858384
C       1.003140     -0.701933      0.451287
H       1.218286      0.775976     -1.178500
H       1.288576      1.517189      0.421424
H      -1.267086      1.771746     -0.001555
H      -0.753939      0.027362      0.943879
H      -2.325654     -0.539276     -0.440158
H      -0.783196     -0.997923     -1.308937
H       1.665806     -0.658601      1.317929
H       1.444316     -1.384521     -0.281012
