10
smiles: [C:1](=[O:2])([H:7])[H:9].[C:3](#[O+:4])[C:5](=[C-:6][H:10])[H:8]
C       -2.40719900       0.47075600      -0.06045600
O       -1.64253800      -0.00733600      -0.84570500
C        0.95781100       0.00422900       0.15804400
O        0.65548100       0.48667900       1.14942300
C        1.46724000      -0.56631000      -0.95906100
C        2.83081400      -0.70078800      -0.77502000
H       -2.07178800       0.85921500       0.92049000
H        0.87897100      -0.85343500      -1.82075500
H       -3.49090600       0.55138700      -0.27238100
H        3.15500200      -0.31898500       0.20726400
