11
Extracted from Q-Chem output
O       1.903121      1.126342     -0.527221
C      -0.244438      0.204983     -0.343090
C      -1.282111     -0.266955      0.604904
N      -0.884319     -1.099062     -0.510729
C       1.185793      0.163083      0.080106
O       1.657972     -0.602887      0.870783
H       2.806909      1.052701     -0.194807
H      -0.496734      1.001506     -1.031862
H      -0.958766     -0.629917      1.572537
H      -2.241642      0.236868      0.578605
H      -1.558435     -1.048305     -1.264432
