14
Extracted from Q-Chem output
C       1.722589      0.019806      0.021212
N       1.085565     -1.294908     -0.014568
C       0.595072     -0.248198     -0.892104
C      -0.776201      0.363368     -0.696991
C      -1.715098      0.027322      1.590726
N      -1.066240      0.712129      0.692075
H       2.733492      0.055595     -0.366196
H       1.547248      0.644406      0.890528
H       0.477756     -1.405537      0.791203
H       0.822435     -0.422907     -1.939700
H      -0.863284      1.260868     -1.314755
H      -2.073436     -0.890731      1.079736
H      -1.542876     -0.343713     -1.020139
H      -0.669899      1.594699      0.989905
