13
Extracted from Q-Chem output
C      -1.815249     -0.309068      0.561577
C      -0.515320     -0.081663     -0.127734
C       0.425483      1.091118     -0.036039
C       1.511116      0.012606      0.135544
O       2.676910     -0.050037     -0.586484
N       0.528557     -0.932375     -0.068470
H      -2.194724     -1.312373      0.354841
H      -1.719816     -0.207501      1.652229
H      -2.563634      0.408282      0.224399
H       2.492310     -0.059847     -1.535047
H       0.578640      1.642587     -0.963359
H       0.228444      1.780521      0.784509
H       0.570894     -1.941788     -0.090899
