13
Extracted from Q-Chem output
C      -1.646669     -0.281910      0.270342
C      -0.232240     -0.167693     -0.221264
C       0.580420      1.146799      0.151792
C       1.598830      0.069710      0.160212
O       2.098635     -0.115856     -1.025910
N       0.780461     -0.961449      0.544548
H      -2.000935     -1.307085      0.147233
H      -1.743720     -0.012794      1.326854
H      -2.289223      0.376326     -0.317037
H       1.015906     -0.292283     -1.431398
H       0.761035      1.910799     -0.593256
H       0.204017      1.540376      1.095355
H       1.077092     -1.864480      0.197597
