13
Extracted from Q-Chem output
O       0.533116      1.712001     -0.333222
C       1.416388      0.882090     -0.031247
C       1.086170     -0.528184     -0.106487
C      -0.453708     -0.439358      0.453483
C      -0.952205      0.715546     -0.319765
N      -1.376012     -1.375650      0.038375
H       2.327452      1.273198      0.435240
H       1.774560     -1.181507      0.425307
H       0.932465     -0.885049     -1.125272
H      -0.394008     -0.216830      1.528675
H      -1.068404      0.522577     -1.377982
H      -1.687203      1.381038      0.119138
H      -1.874657     -1.743554      0.840850
