11
Extracted from Q-Chem output
O       2.374423     -0.479744     -0.145761
C       1.165156     -0.334043     -0.103826
C       0.109121     -1.239573     -0.400808
N      -1.073266     -0.580858     -0.189780
C      -0.985828      0.658794      0.212778
C       0.456911      0.979257      0.318194
H       0.756571      1.794685     -0.345070
H       0.128179     -2.262117     -0.732371
H      -1.963570     -1.033523     -0.337331
H      -1.858785      1.259636      0.406351
H       0.755486      1.259165      1.331548
