11
Extracted from Q-Chem output
O       2.296996     -0.117957     -0.252643
C       1.037050     -0.310576      0.006183
C       0.071689     -1.224120     -0.365965
N      -1.151137     -0.572110     -0.217850
C      -1.029617      0.668248      0.227972
C       0.344648      0.914805      0.450322
H       1.463281      1.060246     -0.294624
H       0.139619     -2.179271     -0.855872
H      -2.033313     -0.993197     -0.456169
H      -1.896761      1.261391      0.473892
H       0.691704      1.501938      1.292664
