13
smiles: [C:1]1([H:7])([H:8])[C:2]([H:9])([H:10])[O:3][C-:4]=[N+:5]=[C:6]1[H:13].[H:11][H:12]
C        0.55637400      -0.78015600       0.28078900
C       -0.86427100      -1.12540300      -0.12748700
O       -1.62103400       0.10550200      -0.27970400
C       -1.01721500       1.19874000      -0.69516800
N        0.20225500       0.97115400      -1.31821800
C        1.02202400       0.14538400      -0.80313000
H        0.57037200      -0.30262300       1.26518200
H        1.18016100      -1.67282500       0.32764600
H       -0.88317400      -1.68009500      -1.06837500
H       -1.40477100      -1.68231200       0.63365700
H       -0.04662300       2.51205600       1.42050500
H        0.38784000       2.49578900       2.02492000
H        2.00945000       0.03670700      -1.24926200
