13
Extracted from Q-Chem output
C       0.534897     -0.705249      0.408815
C      -0.890494     -1.003800     -0.038553
O      -1.648242      0.269704     -0.019660
C      -0.878424      1.229920     -0.431003
N       0.142824      0.992309     -1.239599
C       1.047014      0.518749     -0.380455
H       0.594340     -0.600399      1.491998
H       1.158646     -1.556983      0.123732
H      -0.927750     -1.400554     -1.051350
H      -1.432832     -1.650620      0.645720
H      -0.313026      1.928987      0.634436
H       0.581462      1.603285      0.819466
H       2.097072      0.550081     -0.664156
