14
Extracted from Q-Chem output
C       2.037015      0.011703      0.530619
O       0.804896      0.668807      0.731658
C      -0.150064      0.310795     -0.220226
C      -0.772789     -1.077073      0.082001
O      -1.921394     -0.518814      0.524477
C      -1.538042      0.825748      0.155296
H       1.915921     -1.075808      0.562426
H       2.478890      0.295263     -0.433325
H       2.702429      0.323216      1.333388
H       0.200567      0.517032     -1.235802
H      -0.902861     -1.885692     -0.930384
H      -1.116056     -1.351997     -1.611627
H      -1.589262      1.514232      0.997956
H      -2.143435      1.170125     -0.687469
