16
Extracted from Q-Chem output
C      -2.030055     -0.214110     -0.291916
C      -1.135766      0.001899      0.778837
C       0.595428     -0.625805     -0.161143
O       0.004859     -1.076361     -1.352020
C       1.304494      0.708569     -0.147566
O       2.582587      0.580258     -0.752848
H      -2.401611      0.662922     -0.814931
H      -1.228909     -0.731371     -1.132919
H      -2.773017     -0.997794     -0.170953
H      -0.835232      1.012235      1.029421
H      -1.161897     -0.666667      1.630554
H       0.710066     -1.329802      0.663216
H       1.306775     -1.241773     -0.912016
H       1.405106      1.048341      0.890086
H       0.689431      1.429332     -0.698383
H       2.933785      1.452418     -0.937827
