12
Extracted from Q-Chem output
C      -0.925477     -0.993691     -0.280398
C       0.030828      0.131672     -0.036549
C      -0.233990      1.491682     -0.571770
O      -0.296165      1.017133      1.093202
C       1.475680     -0.242485      0.112690
O       1.979872     -1.166722     -0.461819
H      -0.915457     -1.712479      0.541539
H      -1.932357     -0.605476     -0.437996
H      -0.613210     -1.516599     -1.184582
H       0.717152      2.049183     -0.542978
H      -1.252678      1.002383      1.212406
H       2.063492      0.457398      0.741217
