10
Extracted from Q-Chem output
C      -1.597181      0.096713      0.397997
N      -0.255403     -0.316842      0.063101
C       0.603287      0.573929     -0.150390
N       1.941045      0.304754     -0.484334
N       2.216374     -0.900915     -0.551859
N       2.566215     -1.953968     -0.637969
H      -1.873255     -0.324072      1.366650
H      -2.293520     -0.308224     -0.338772
H      -1.723076      1.186379      0.439276
H       0.422721      1.649822     -0.103969
