10
Extracted from Q-Chem output
C      -1.467033     -0.041800      0.227214
N      -0.055931     -0.219422      0.008420
C       0.789406      0.708039     -0.111278
N       2.135678      0.417381     -0.326214
N       2.156658     -0.875379     -0.348146
N       1.397379     -1.726525     -0.241942
H      -1.754838     -0.520663      1.164064
H      -2.022516     -0.526630     -0.576558
H      -1.754980      1.013291      0.268028
H       0.576177      1.771707     -0.063589
