12
Extracted from Q-Chem output
C      -1.696458     -0.152538     -0.045749
C      -0.207332     -0.150251     -0.011781
C       0.696753     -1.155653      0.197612
C       2.036743     -0.641168      0.171102
N       1.821559      0.656564     -0.023291
N       0.494876      0.993145     -0.222973
H      -2.114059      0.463136      0.754489
H      -2.073733      0.227870     -0.996736
H      -2.064871     -1.168075      0.086355
H       0.435152     -2.192376      0.345052
H       2.514863      1.356060     -0.221479
H       0.169478      1.918878      0.003050
