15
Extracted from Q-Chem output
C      -2.048521      0.542193     -0.507270
O      -2.040777     -0.814322      0.016720
C      -0.802552     -0.926930      0.577774
C       0.193021     -0.254671     -0.359131
O       0.157794     -0.318847     -1.658408
O       1.336657     -0.001420      0.192650
C       2.412613      0.480747     -0.631687
H      -2.894902      0.619026     -1.197204
H      -0.813625      0.029712     -1.714023
H      -2.213378      1.252081      0.313312
H      -0.703491     -0.420253      1.550452
H      -0.512743     -1.980611      0.708413
H       2.751066     -0.306614     -1.301516
H       2.075762      1.340140     -1.208456
H       3.198548      0.761003      0.062669
