14
Extracted from Q-Chem output
C       0.619782      1.458109     -0.869397
C       0.494732      0.994480      0.476460
C      -0.880478      0.421476     -0.107201
C      -0.678534     -1.085777      0.021576
C       0.838393     -1.232361      0.143218
O       1.239421     -0.112943      0.907350
H       0.101700      2.428602     -0.918606
H       1.307971     -1.214194     -0.844688
H       0.354976      1.668577      1.320609
H      -1.709306      0.862722      0.439164
H      -1.000909      0.685323     -1.179126
H      -1.162591     -1.437614      0.933766
H      -1.085719     -1.639497     -0.823886
H       1.151681     -2.130385      0.674612
