16
smiles: [C:1](=[C:2]([H:9])[H:10])([C:3]1=[C:4]([H:11])[C:5]([H:13])([H:14])[C:6]1([H:15])[H:16])[H:8].[H:7][H:12]
C       -1.30808100       0.61949700      -0.26803700
C       -2.20173600      -0.24849500      -0.72966900
C        0.12710400       0.37271100      -0.19891900
C        0.90147300      -0.71743300      -0.15030000
C        2.19504800       0.05694800      -0.10665300
C        1.29907500       1.33088500      -0.14492000
H       -1.73588900      -1.70894300       1.80706900
H       -1.64409700       1.59258000       0.08071200
H       -3.25941600      -0.01699500      -0.74416000
H       -1.90041500      -1.21645600      -1.11492500
H        0.68667800      -1.77930800      -0.12344000
H       -1.60289700      -2.23409600       2.31784800
H        2.85179300      -0.06691200      -0.97040800
H        2.78719700      -0.05870400       0.80381200
H        1.43061300       1.96448500      -1.02455200
H        1.35281000       1.95214200       0.75181800
