14
Extracted from Q-Chem output
O       2.179090     -0.180581      0.021801
C       2.126992      0.601510     -1.003330
C      -0.287693     -0.021550      0.055147
C      -1.316068     -0.525318     -0.853122
N      -1.618780     -0.367362      0.584343
C      -1.124968      1.022058      0.648463
C       0.936100     -0.670595      0.583499
H       3.205167      0.795511     -1.204364
H      -1.779956      0.165175     -1.553940
H      -1.266663     -1.559601     -1.175794
H      -1.583307      1.760058     -0.006093
H      -0.905156      1.358406      1.655966
H       1.022089     -0.510569      1.658870
H       0.920061     -1.744110      0.390092
