14
Extracted from Q-Chem output
O       2.217573     -0.295741      0.039799
C       1.753202      0.529953     -0.763537
C       0.002953      0.163635     -0.172222
C      -1.139880     -0.514519     -0.844525
N      -1.532566     -0.369894      0.570533
C      -0.963060      0.991256      0.601876
C       0.721311     -0.775007      0.717479
H       2.528580      1.027650     -1.371454
H      -1.700082      0.100140     -1.558238
H      -1.012999     -1.538431     -1.195846
H      -1.505638      1.747832      0.023674
H      -0.671504      1.357610      1.586063
H       0.832428     -0.522122      1.765019
H       0.678764     -1.835826      0.501441
