16
Extracted from Q-Chem output
C       2.897653     -0.402044      0.416772
O       1.915883      0.367166     -0.226062
C       0.635687      0.141182      0.281160
C      -0.401462      0.998410     -0.258000
C      -1.745563      0.519205      0.130899
C      -2.319734     -0.118678     -1.153311
H       2.703114     -1.478342      0.312811
H       3.851791     -0.170118     -0.053450
H       2.962325     -0.164286      1.487460
H       0.379272     -0.936891      0.253379
H       0.574110      0.421744      1.361263
H      -2.350753      0.604340     -1.967434
H      -2.383640      1.365850      0.393613
H      -1.779642     -0.221929      0.945526
H      -1.720409     -0.971189     -1.477684
H      -3.330934     -0.474311     -0.955089
