16
Extracted from Q-Chem output
C       2.658255     -0.387449      0.086046
O       1.538373      0.296524     -0.406474
C       0.424164      0.192489      0.438563
C      -0.720027      1.021606     -0.061046
C      -2.011495      0.463544      0.384951
C      -1.815327     -0.151087     -0.994091
H       2.453529     -1.458709      0.220951
H       3.459079     -0.269606     -0.642603
H       2.991232      0.023668      1.048547
H       0.190906     -0.877477      0.613269
H       0.638931      0.629849      1.430036
H      -0.878628      0.451226     -1.400174
H      -2.847969      1.150133      0.465164
H      -2.010925     -0.280773      1.182843
H      -1.570315     -1.208171     -0.991622
H      -2.550044      0.154818     -1.731461
