10
Extracted from Q-Chem output
O       2.327282      0.677109     -0.486316
C       0.054225      0.162056     -0.256601
N       0.113000     -1.255997     -0.343362
N      -1.232337     -1.197790     -0.184006
C      -1.390961      0.119369     -0.091115
C       1.057189      1.040157     -0.319811
H       2.359596     -0.287630     -0.545426
H      -1.849201     -1.995380     -0.157240
H      -2.268900      0.725404      0.041965
H       0.915721      2.110523     -0.240420
