10
Extracted from Q-Chem output
O       2.214656      0.170396     -0.502486
C       0.887553      0.012578     -0.357005
N       0.331181     -1.178657     -0.328687
N      -0.981597     -0.923854     -0.173785
C      -1.249902      0.391108     -0.105022
C      -0.052662      1.052287     -0.220262
H       2.604280     -0.706281     -0.574032
H      -1.625645     -1.689966     -0.123956
H      -2.255958      0.759651      0.017980
H       0.128096      2.112737     -0.209394
