10
Extracted from Q-Chem output
O       2.316000      0.141302     -0.205864
C       0.634166      0.127367     -0.195659
N       0.024705     -0.944642     -0.072074
N      -1.363495     -0.884716     -0.143313
C      -2.046065      0.214099     -0.175241
C       1.267682      1.264822     -0.473456
H       2.617581     -0.129791     -1.080911
H      -1.731579     -1.829294     -0.148538
H      -3.102614     -0.093313     -0.234659
H       1.383620      2.134166      0.153065
