13
Extracted from Q-Chem output
O      -2.047573      0.050230     -0.408948
C      -1.390185     -1.136467      0.041921
C      -0.677178     -0.122051     -0.716739
C       0.247810      0.873794     -0.029910
O      -0.208088      1.190474      1.262113
C       1.605077      0.329561      0.042502
C       2.708893     -0.130274      0.066855
H      -1.158835      1.332182      1.184846
H      -1.238524     -1.197718      1.114292
H      -1.708097     -2.047965     -0.452868
H      -0.456283     -0.299830     -1.766241
H       0.278164      1.779580     -0.652515
H       3.692896     -0.534978      0.101049
