12
Extracted from Q-Chem output
C      -1.650375     -0.602642     -0.438594
C      -0.257445     -0.211234     -0.180451
O       0.802325     -1.014067     -0.453609
C       1.712175      0.050678     -0.021885
C       0.462355      0.839688      0.378161
O       0.218812      2.094099      0.798480
H      -2.320842      0.169534     -0.064484
H      -1.809280     -0.715451     -1.513898
H      -1.885478     -1.557314      0.036569
H       0.095516      0.866894      1.490616
H       2.252417      0.451961     -0.877016
H       2.387380     -0.301188      0.756061
