19
Extracted from Q-Chem output
C      -2.797158      0.051976     -0.878159
C      -1.498638     -0.569100     -0.591649
C      -0.440866      0.426810     -0.388868
C       0.794177     -0.017598      0.363353
C       1.785112     -0.873080     -0.357569
C       2.115592      0.562504     -0.047030
C       0.542920     -0.283043      1.827445
H      -3.449732     -0.559076     -1.502041
H      -2.803539      1.106463     -1.192956
H      -3.244977      0.011728      0.131666
H      -0.203670     -1.072522      1.947936
H      -0.191262      0.591686     -1.457765
H      -0.797777      1.410242     -0.033977
H       1.572740     -1.140957     -1.384919
H       2.291823     -1.646925      0.204689
H       2.133964      1.268845     -0.868494
H       2.848200      0.762620      0.724853
H       0.174159      0.615090      2.331853
H       1.455553     -0.600888      2.334642
