10
Extracted from Q-Chem output
C      -1.955500      0.028483     -0.082221
O      -1.133105      1.088476     -0.627028
C       0.153417      1.053701     -0.658198
O       0.551192     -0.137292     -0.096562
C       1.843288     -0.349702     -0.040705
C       3.001468     -0.617149      0.046036
H      -2.977473      0.369832     -0.214313
H      -1.785758     -0.896786     -0.628802
H      -1.731443     -0.115625      0.972679
H       4.038948     -0.837535      0.116772
