9
Extracted from Q-Chem output
O       2.331359     -0.177283     -0.629591
C       1.472182     -0.154926      0.227331
C       0.286254      0.652473      0.077057
C      -0.858893      0.078275     -0.613116
O      -1.044189     -0.233319      0.811256
H       1.602678     -0.663532      1.204747
H      -1.530454      0.486530      1.226559
H      -1.631769      0.735953     -1.005239
H      -0.779937     -0.856804     -1.165727
