11
Extracted from Q-Chem output
C       0.012248      1.163083      0.033330
C      -0.838792      0.011432      0.499205
C      -0.769565     -1.159765     -0.398305
N       0.473868     -1.461229     -0.618665
C       1.107189     -0.660173      0.240095
C       1.251923      0.722425     -0.218443
H      -0.370833      2.167310     -0.082472
H      -1.761828      0.249241      1.023445
H      -1.600400     -1.690833     -0.846523
H       0.180697     -0.513231      1.246955
H       2.101013      1.190925     -0.686437
