13
Extracted from Q-Chem output
O      -2.800610     -0.834594      1.314846
C      -1.876663     -0.464254      0.596577
C      -0.648067      0.069400      0.985227
N       0.221237      0.589063     -0.049067
C       0.689484     -0.287164     -1.142640
C       1.637200      0.171518     -0.115965
H      -1.980061     -0.574220     -0.518371
H      -0.392693      0.389614      1.984087
H       0.086506      1.549822     -0.354703
H       0.707974      0.170885     -2.122094
H       0.288308     -1.286833     -1.074024
H       1.899271     -0.504453      0.684803
H       2.341199      0.956916     -0.355327
