13
Extracted from Q-Chem output
O      -2.787391     -0.702554      1.360091
C      -1.960035     -0.239146      0.596301
C      -0.656778      0.208847      0.944479
N       0.251617      0.525049     -0.213856
C       0.789907     -0.428019     -1.174887
C       1.658827      0.242667     -0.170367
H      -2.217284     -0.091817     -0.481702
H      -0.162985     -0.071573      1.865498
H      -0.424705      1.369527      0.187578
H       0.808831     -0.102404     -2.206045
H       0.500784     -1.456999     -0.993647
H       1.993041     -0.342383      0.679091
H       2.319951      1.041209     -0.482022
