21
Extracted from Q-Chem output
C      -1.787570     -0.904228     -0.059840
C      -0.560582     -0.603970     -0.801246
C       0.040134      1.281341     -0.221207
C      -1.033942      1.641407      0.666015
C       0.692673     -0.038765     -0.144321
C       0.976417     -0.596049      1.241786
C       1.903970     -0.180935     -1.049454
H      -0.848421     -1.788124     -0.683396
H      -2.728302     -0.954008     -0.591394
H      -1.733331     -1.377667      0.911739
H      -0.664261     -0.410262     -1.862054
H       0.173302      1.833010     -1.144674
H      -1.494705      2.599470      0.431922
H      -0.814345      1.587456      1.734620
H      -1.853036      0.797868      0.548909
H       1.822430     -0.066819      1.683928
H       1.231256     -1.657900      1.184170
H       0.129541     -0.487728      1.918735
H       1.687092      0.187889     -2.054322
H       2.742222      0.395618     -0.652685
H       2.208151     -1.227458     -1.131316
