17
Extracted from Q-Chem output
C      -1.740064     -0.546991     -0.382024
C      -0.573342      0.007065      0.140624
O      -1.074153      1.831656     -0.464739
C       0.222016      0.129100      1.375831
C       0.894786      0.021656      0.000830
C       1.586429     -1.251994     -0.400272
O       1.518913      1.145812     -0.505764
H      -2.501608     -0.890414      0.309215
H      -1.844504      0.783752     -0.613421
H      -1.677365     -1.058762     -1.336195
H      -1.354024      2.443654      0.224487
H       0.300819      1.093285      1.857998
H       0.199530     -0.724411      2.045688
H       2.617716     -1.226892     -0.044489
H       1.092199     -2.126258      0.023851
H       1.598917     -1.343869     -1.487008
H       0.802039      1.765011     -0.722802
