14
Extracted from Q-Chem output
C       1.300175      0.905349     -0.490453
C       0.234384      0.956637      0.503173
C      -1.130791      0.425697      0.101567
C      -0.883181     -1.087834     -0.055485
C       0.592781     -1.179287     -0.346062
O       1.085736     -0.156194      0.842883
H       1.158956      0.751692     -1.545209
H       2.245577      1.343189     -0.187938
H       0.277221      1.730673      1.263432
H      -1.876700      0.648090      0.865595
H      -1.455799      0.890505     -0.830790
H      -1.183498     -1.595032      0.875348
H      -1.466391     -1.514327     -0.873499
H       1.049234     -2.118250     -0.025644
