10
Extracted from Q-Chem output
C      -1.616385      0.084942      0.593334
O      -0.198330      0.009679      0.762241
C       0.508325     -0.023862     -0.351674
O       0.071947      0.004682     -1.470197
C       2.018212     -0.107930     -0.101039
O       2.517781     -0.154858      0.980282
H      -2.031638      0.111849      1.596444
H      -1.884601      0.985677      0.041576
H      -1.978833     -0.788346      0.051334
H       2.593523     -0.121834     -1.044561
