12
Extracted from Q-Chem output
C      -1.344222     -0.292644      0.500080
N      -0.426230     -0.122787     -0.664235
C       0.978807      0.204896     -0.336650
C       1.741327     -0.891542      0.068374
N       2.310024     -1.856792      0.359973
C       1.189476      1.541793      0.003699
N       1.284330      2.671119      0.239730
H      -0.950166     -1.096639      1.117011
H      -2.348516     -0.531059      0.149951
H      -1.342255      0.638920      1.060791
H      -0.781179      0.612283     -1.274286
H      -0.421950     -0.975576     -1.222140
