12
Extracted from Q-Chem output
C      -1.533490      0.294732     -0.016401
N      -0.483847     -0.719620     -0.037113
C       0.981387     -0.261983      0.176696
C       1.822223     -0.428899     -0.949963
N       2.466834     -0.645024     -1.879719
C       1.110934      0.855931      1.034393
N       1.181267      1.738507      1.771403
H      -1.516604      0.811856      0.940603
H      -2.497199     -0.197562     -0.135018
H      -1.375034      1.022856     -0.815597
H      -0.496515     -1.321847     -0.848827
H       0.269917     -1.192649      0.780812
