14
Extracted from Q-Chem output
O       1.961262      1.156551      0.093766
C       1.368235     -0.126938      0.037942
C      -0.092336      0.031772      0.394681
C      -0.947396      0.692950     -0.689995
O      -1.458525     -0.611752     -1.052459
C      -0.889798     -1.226815      0.011541
H       2.882043      1.087043     -0.160929
H       1.837917     -0.818497      0.747368
H       1.458774     -0.564090     -0.965554
H      -0.192324      0.430972      1.400752
H      -1.762934      1.313020     -0.306709
H      -0.439574      1.182292     -1.521958
H      -2.088296     -0.997734      1.250857
H      -1.698737     -1.725922      0.860293
