16
Extracted from Q-Chem output
C       0.390768      2.116758      0.784117
C      -0.587783     -0.311862     -1.516438
C      -0.332287     -1.101612     -0.271625
C      -0.924285     -2.455692     -0.079175
C       0.457697     -0.418871      0.564345
C       0.809647      0.900895     -0.033073
N       0.084902      0.795727     -1.298335
H      -0.679865      2.081363      0.990760
H       0.613743      3.042698      0.250339
H       0.928335      2.140196      1.732760
H      -0.638155     -2.895665      0.876904
H      -0.607743     -3.123740     -0.882915
H      -2.013892     -2.400398     -0.130346
H       0.813448     -0.732635      1.537992
H       1.885412      0.951969     -0.243487
H       0.111211      1.544452     -1.971459
