16
Extracted from Q-Chem output
C      -0.141570      1.732745      0.643222
C      -0.439389      0.423853     -0.804252
C      -0.317957     -0.928159     -0.091858
C      -1.334440     -2.002699     -0.167128
C       0.872964     -0.780301      0.480881
C       1.192383      0.551420     -0.110481
N       0.820241      0.478229     -1.498133
H      -1.159019      1.541041      0.967815
H      -0.108262      2.676827      0.101436
H       0.464417      1.802284      1.551409
H      -0.992731     -2.911755      0.327956
H      -1.559477     -2.236637     -1.211854
H      -2.271248     -1.682648      0.294754
H       1.461563     -1.380334      1.160946
H       1.986809      1.234561      0.149538
H       0.927975      1.389641     -1.939816
