13
Extracted from Q-Chem output
N      -2.040476      0.977215     -0.022363
C      -1.356022     -0.130119      0.426293
O      -2.167345     -0.959704      1.127495
C      -0.073436     -0.400086      0.175979
O       0.651201      0.562003     -0.526477
C       1.933438      0.309021     -0.795608
N       2.528705     -0.747534     -0.455378
H      -2.765872      1.287716      0.603215
H      -1.447504      1.717835     -0.357017
H       0.443218     -1.305562      0.448525
H      -1.653017     -1.698812      1.459077
H       2.358252      1.151681     -1.342810
H       3.492974     -0.726457     -0.764053
