10
Extracted from Q-Chem output
O       2.156182     -0.116820     -0.115968
C       0.852424     -0.205162     -0.002339
N       0.228326     -1.324611      0.384172
C      -1.101085     -1.101140      0.401170
C      -1.284552      0.344304     -0.034739
N       0.074162      0.822652     -0.267290
H       2.508319     -0.983814      0.127965
H      -1.891502      0.388289     -0.942373
H      -1.788195      0.912914      0.750663
H       0.391765      1.724174     -0.573894
