16
Extracted from Q-Chem output
C       2.067351     -0.221004     -0.821218
C       1.481621      0.259006      0.529396
C       0.118205      0.678476      0.166905
C      -0.900024     -0.335991      0.408308
C      -2.187752     -0.137256     -0.393749
O      -2.559053      1.213559     -0.409807
H       1.526349     -1.085714     -1.208710
H       2.030577      0.571037     -1.568826
H       3.106449     -0.512049     -0.670680
H       1.542114     -0.566096      1.253649
H       2.084087      1.099025      0.879070
H      -1.726714      1.707771     -0.462746
H      -1.106663     -0.045814      1.462623
H      -0.561095     -1.382662      0.443987
H      -3.009317     -0.706737      0.046311
H      -2.030596     -0.520694     -1.411972
