15
Extracted from Q-Chem output
C       1.682543     -0.355117     -0.688931
C       0.967014      0.514405      0.262910
C      -0.245381      1.223132     -0.315112
N      -1.235723      0.927015      0.718593
C      -0.861453     -0.401360      1.144370
C      -1.142006     -1.492364      0.222805
N      -1.328296     -2.318483     -0.555082
H       1.047916     -0.929108     -1.378716
H       2.225690      0.374824     -1.310434
H       2.426410     -0.999437     -0.222730
H       0.358075     -0.176360      1.290396
H      -0.549560      0.833666     -1.302691
H      -0.052326      2.295528     -0.414795
H      -2.194930      1.001230      0.410224
H      -1.158787     -0.656799      2.162316
