17
smiles: [C:1]([C@:2]12[C:3]([H:11])([H:12])[C:4]([H:14])=[C:5]1[C:6]([H:16])([H:17])[O:7]2)([H:8])([H:9])[H:10].[H:13][H:15]
C        1.40244200       0.06290800       0.93881900
C        0.35242000      -0.30806100      -0.06389000
C        0.64846900      -1.41110000      -1.12516200
C        0.08704500      -0.41438300      -2.14022900
C       -0.16102100       0.50602200      -1.19880700
C       -1.35411300       0.90890900      -0.37707300
O       -1.00819300      -0.20845900       0.49621600
H        1.46928000      -0.70772000       1.71047000
H        2.37601400       0.14419100       0.45230900
H        1.16793900       1.01254200       1.42084500
H        1.68042700      -1.76334100      -1.20408700
H       -0.02250200      -2.26606900      -1.01568400
H       -1.37181700       0.88306400       2.72386500
H       -0.29144100      -0.55581700      -3.14513800
H       -1.50785500       1.39312100       3.24894000
H       -2.33633400       0.79445800      -0.83698800
H       -1.28906000       1.85729000       0.16238600
