11
Extracted from Q-Chem output
C      -1.407244     -0.415880     -0.070412
C      -0.006781      0.111439      0.017003
C       0.324554      1.422545      0.563803
O       1.440684      1.876985      0.654708
C       1.931884     -1.089687     -0.942062
N       0.986637     -0.585629     -0.422735
H      -1.544679     -1.315958      0.532352
H      -1.681631     -0.653264     -1.100808
H      -2.103305      0.339474      0.295866
H      -0.558686      2.000833      0.902121
H       2.633977     -1.782135     -0.491859
