11
smiles: [C:1]([N:2]=[C:3]([H:10])[H:11])([H:6])([H:7])[H:8].[C:4]=[N:5][H:9]
C        1.36469700      -0.40869400      -0.41368800
N        0.10960200       0.22337500      -0.07826100
C        0.05195300       1.47780700      -0.12063400
C       -3.16275900      -1.69734300       1.02962600
N       -2.18560400      -1.16169700       0.69843200
H        1.20339000      -1.09595500      -1.24632300
H        1.69654400      -1.00873100       0.43579700
H        2.15624300       0.30426400      -0.68190000
H       -1.34833500      -0.70245700       0.41468900
H       -0.88197200       1.97838100       0.12881100
H        0.90596600       2.11001900      -0.39916900
