13
Extracted from Q-Chem output
O       1.739121      0.550632      0.379139
C       2.044052      1.322324     -0.609390
C       0.908172     -0.591128      0.074688
C      -0.485804     -0.333233      0.560694
C      -1.465374      0.338096     -0.315760
N      -1.514843     -1.108087     -0.117684
H       2.648178      2.119612     -0.118140
H       1.362493     -1.439775      0.587444
H       0.919971     -0.747052     -1.004069
H      -0.585087     -0.175212      1.630471
H      -1.157924      0.655395     -1.305271
H      -2.224491      0.953415      0.153018
H      -2.254250     -1.363748      0.523353
