13
Extracted from Q-Chem output
O       1.531948      0.987820      0.920701
C       2.245206      0.795082     -0.136349
C       0.993212     -0.460160      0.122532
C      -0.441480     -0.300732      0.551931
C      -1.416278      0.367903     -0.324924
N      -1.356820     -1.089384     -0.264519
H       1.980918      1.564736     -0.920922
H       1.534090     -1.268991      0.592856
H       0.982278     -0.537047     -0.975313
H      -0.609625     -0.252427      1.621379
H      -1.084996      0.800578     -1.262528
H      -2.246554      0.879637      0.146973
H      -2.109091     -1.468738      0.295392
