11
Extracted from Q-Chem output
N       1.900677      0.174693     -0.489079
C       0.610421      0.158533     -0.158203
C      -0.040264      1.466678      0.059208
N      -1.318270      1.353688      0.387322
C      -1.904450      0.126676      0.494547
N      -1.367903     -1.034761      0.306469
N      -0.057129     -0.972497     -0.033445
H       2.302236      1.096973     -0.555845
H       2.461845     -0.638215     -0.663325
H       0.358745     -1.881125     -0.180119
H      -2.953662      0.102450      0.769647
