11
Extracted from Q-Chem output
N       0.014554      1.685442     -0.454291
C       1.515166     -0.935238      0.310023
O       0.536066     -0.990490     -0.598655
C      -0.747095     -0.590153     -0.153501
C      -0.915038      0.901923     -0.130640
O       1.380033     -0.677812      1.468283
H      -0.276299      2.656271     -0.373390
H       2.467035     -1.189100     -0.173028
H      -0.950571     -0.988267      0.844475
H      -1.461945     -1.027527     -0.853113
H      -1.910703      1.230169      0.192391
