11
Extracted from Q-Chem output
N       0.343600      0.984010     -0.632916
C       1.138709     -0.089209     -0.333602
O       0.528155     -1.236564     -0.427921
C      -0.854075     -0.888682     -0.101626
C      -0.571801      0.504595      0.494262
O       0.329105      0.394729      1.487322
H       0.780639      1.847785     -0.335478
H       2.221803     -0.108716     -0.389144
H      -1.202848     -1.612716      0.629180
H      -1.450177     -0.892340     -1.013863
H      -1.464666      1.121505      0.656333
