11
Extracted from Q-Chem output
N      -1.668703     -0.373188      0.173975
C      -0.510693     -0.952672     -0.003603
C       0.651118     -1.290640     -0.397606
C       1.164641     -0.157322      0.403219
N       1.007617      1.158689      0.121391
N       0.106991      1.520635     -0.696575
H      -2.234050     -0.627145      0.966957
H      -1.608974      0.620629     -0.099173
H       1.126461     -2.078079     -0.965258
H       1.766044     -0.362185      1.280369
H       0.189226      2.534623     -0.771416
