16
Extracted from Q-Chem output
C      -0.559431      1.301430     -1.001845
C      -0.455898      0.064426     -0.120990
C      -1.573592     -0.938967     -0.429920
C       0.822182     -0.708828     -0.404407
C       1.994832     -0.223127      0.891761
O       1.234974     -1.388809      0.767120
H       0.212275      2.035948     -0.757717
H      -1.530051      1.786621     -0.880363
H      -0.441802      1.030874     -2.053219
H      -0.539250      0.341065      0.938781
H      -2.546854     -0.473281     -0.263382
H      -1.503387     -1.820952      0.208098
H      -1.523547     -1.265288     -1.471005
H       1.915713      0.208535     -0.236329
H       3.062355     -0.425978      0.953058
H       1.603733      0.504991      1.597569
