11
Extracted from Q-Chem output
O       1.849045     -0.271654     -1.369528
C       0.882170     -0.647728     -0.544179
C       0.423606     -1.247742      0.492333
C      -0.562284     -0.430368     -0.337905
C      -1.061027      0.881749      0.173799
N      -0.544412      1.451150      1.177097
H       2.692536     -0.586143     -1.029750
H       0.516782     -1.807737      1.402468
H      -1.272718     -0.945440     -0.987412
H      -1.905403      1.310545     -0.381184
H      -1.006194      2.335513      1.372080
