11
Extracted from Q-Chem output
O       1.875978      0.377028     -0.437023
C       1.286508     -0.703670     -0.075259
C       0.313142     -1.352841      0.507251
C      -0.773722     -0.683567     -0.140222
C      -1.067959      0.707893      0.047293
N      -0.385766      1.513784      0.774855
H       2.531331      0.190612     -1.120242
H       0.360610     -2.295366      1.041434
H      -1.378821     -1.231851     -0.854967
H      -1.957365      1.039593     -0.503650
H      -0.803937      2.438385      0.760529
