11
Extracted from Q-Chem output
O       1.926588     -0.217664     -0.428808
C       0.579724     -0.161218     -0.169205
C      -0.105086     -1.404962     -0.576503
N      -1.350254     -1.570562     -0.446956
C      -0.645384      1.869791      0.910711
C      -0.028702      0.862278      0.372912
H       2.334464      0.604514     -0.148057
H       0.577733     -2.152479     -0.995008
H      -1.626588     -2.489222     -0.782854
H      -1.068621      2.663261      0.302512
H      -0.771766      1.946560      1.986370
