16
smiles: [C:1](=[O:2])([H:8])[H:10].[C:3]1([C:4]([H:11])([H:12])[H:13])([C:5]([H:14])([H:15])[H:16])[C:6]([H:9])=[N:7]1
C        2.46724900       0.08551300      -1.21351300
O        2.17257800      -1.05077600      -1.44156200
C       -0.91554700       0.22282500       0.51837100
C       -1.33683900      -0.00814600      -0.91175200
C       -0.43352800      -1.00327300       1.25354300
C       -0.58703200       1.55058200       0.99161100
N       -1.74359900       1.21847900       1.32149000
H        3.41326100       0.52910700      -1.57917300
H        0.07519400       2.39967500       1.10537600
H        1.81038400       0.75381800      -0.62419700
H       -0.49261600      -0.35124800      -1.51567300
H       -1.72970600       0.90483700      -1.35895200
H       -2.11410800      -0.77538500      -0.96323300
H       -1.20223900      -1.78070900       1.24476900
H       -0.19359700      -0.77274200       2.29146900
H        0.46014200      -1.41641600       0.77827900
