11
Extracted from Q-Chem output
C      -0.299992     -1.426354      0.338656
O      -1.130607     -0.302901      0.305794
C      -0.609834      0.746827     -0.442619
C       0.778333      1.166334      0.011270
C       1.742660      0.532238      0.593103
H      -0.803314     -2.193616      0.923687
H      -0.082843     -1.805731     -0.667410
H      -1.298485      1.584097     -0.335725
H      -0.548840      0.481812     -1.508069
H       1.104556      2.194208     -0.178971
H       0.663627     -1.191062      0.837004
