11
Extracted from Q-Chem output
C      -1.864699      0.548232     -0.013847
C      -0.498972      1.023708     -0.420574
C       0.608786      0.564245      0.084815
N       1.650778      0.199109      0.612753
N       2.376713     -0.850216      0.045578
N       2.087820     -1.936251      0.531798
H      -2.465920      1.380780      0.356901
H      -2.390583      0.112539     -0.865714
H      -1.799906     -0.205479      0.769640
H      -0.406875      1.791589     -1.181339
H       2.708723     -2.613362      0.077739
