11
Extracted from Q-Chem output
C      -1.814671      0.372114     -0.057299
C      -0.391746      0.544239     -0.350254
C       0.782993      0.690242      0.129400
N       2.040606      0.537032      0.374475
N       2.440242     -0.773373      0.180596
N       1.539156     -1.584787     -0.073578
H      -2.457269      0.880321     -0.774144
H      -1.978047     -0.703776     -0.176281
H      -2.087143      0.638021      0.965256
H       0.280245      1.782253      0.072869
H       2.000173     -2.486465     -0.203064
