19
smiles: [C:1]([C:2]([C:3]([O:4][H:14])([O:7][H:19])[H:13])([H:11])[H:12])([H:8])([H:9])[H:10].[C:5]([C:6]([H:16])([H:17])[H:18])[H:15]
C        2.34290600       0.15707200       1.38312900
C        0.85205200       0.41111000       1.21933300
C        0.16938500      -0.62038300       0.34139600
O        0.26745700      -1.92704400       0.84736500
C       -1.23502700       1.14875300      -1.16821500
C       -1.72916900       0.29185400      -2.22793400
O       -1.17287200      -0.23031900       0.20909800
H        2.53055900      -0.82551700       1.81816100
H        2.85702500       0.19477000       0.41986400
H        2.79702400       0.90808700       2.03075500
H        0.34668400       0.40920200       2.19157100
H        0.67360400       1.39505600       0.78007200
H        0.65720300      -0.67425900      -0.63959600
H       -0.11495300      -1.92766900       1.73035100
H       -2.12342100       1.49779400      -0.60606000
H       -0.98194600      -0.31222800      -2.74263800
H       -2.69344300      -0.21869300      -2.13300900
H       -1.90777400       1.17953700      -2.88991700
H       -1.61122000      -0.87216500      -0.35462100
