19
Extracted from Q-Chem output
C       2.272673      0.105439      1.584789
C       0.941327      0.539650      0.966702
C       0.388884     -0.476389      0.008040
O       0.501892     -1.772545      0.361539
C      -1.282557      0.779036     -0.754167
C      -1.777061      0.265580     -2.074036
O      -1.466101     -0.356175      0.263803
H       2.175619     -0.774792      2.223555
H       3.015081     -0.122002      0.817964
H       2.664931      0.913550      2.202894
H       0.199449      0.718461      1.747825
H       1.037289      1.471671      0.415979
H       0.620258     -0.382566     -1.041188
H       0.360480     -1.869709      1.309869
H      -1.938629      1.578015     -0.392994
H      -1.115616     -0.491644     -2.519031
H      -2.786729     -0.191440     -2.025545
H      -1.840109      1.092030     -2.785773
H      -2.047009     -1.041214     -0.101122
