11
Extracted from Q-Chem output
N       2.593591     -0.257758     -0.216315
C       1.454279     -0.018938     -0.144738
C      -0.094223      1.454966     -0.352048
C      -1.215942      1.010738     -0.126895
C      -1.136650     -1.103073      0.400389
O       0.017338     -1.531093      0.381839
H       3.442173     -0.779302     -0.184407
H       0.658601      2.167332     -0.605359
H      -2.269368      1.178471     -0.061758
H      -1.817534     -1.291982     -0.443638
H      -1.619051     -0.835372      1.352913
