17
Extracted from Q-Chem output
C       2.068930     -0.067353      0.172036
C       0.574456      0.005428      0.019216
C      -0.377919     -0.829457      0.875876
C      -1.535207     -0.423908     -0.052900
C      -0.885863     -0.927060     -1.352919
C      -1.421011      1.104275      0.017457
C      -0.119312      1.354368     -0.008967
H       2.581496      0.517548     -0.593019
H       2.343022      0.341061      1.149245
H       2.424282     -1.096972      0.125516
H      -0.444438     -0.480884      1.907968
H      -0.166170     -1.897566      0.828754
H      -2.525307     -0.845528      0.121041
H      -1.035054     -0.174158     -2.144032
H       0.370213     -0.682680     -1.043588
H      -2.240897      1.809151      0.020181
H       0.398901      2.302297     -0.039936
