11
Extracted from Q-Chem output
N      -1.908995     -0.147093      0.109539
C      -0.606831      0.318754      0.070131
C       0.400783     -0.754198      0.105091
C       1.667891     -0.493600     -0.125837
N       2.814394     -0.291103     -0.448750
N      -0.244580      1.539923      0.054020
H      -2.080278     -1.069437     -0.251181
H      -2.629828      0.520638     -0.103685
H       0.126062     -1.770617      0.354311
H       3.461893      0.001731      0.275697
H      -1.041009      2.168322     -0.004669
