14
Extracted from Q-Chem output
C      -1.974356     -0.358750      0.227653
C      -0.582213      0.131290      0.102450
O      -0.286229      0.964484     -0.800353
C       0.922848      1.530815     -1.059028
C       1.388929     -1.061243      0.441517
O       0.332825     -0.255983      0.997253
H      -2.011836     -1.448904      0.145786
H      -2.599657      0.081018     -0.546047
H      -2.379571     -0.094079      1.208245
H       1.016220     -2.072527      0.270292
H       0.786430      2.378540     -1.713453
H       1.567099      1.621815     -0.192122
H       1.763415     -0.628489     -0.490617
H       2.182366     -1.081070      1.184013
