14
Extracted from Q-Chem output
C      -1.851933      0.366899      0.334146
C      -0.452099      0.045063     -0.113841
C      -0.007699     -1.225265     -0.198600
O       1.758789     -2.704035     -0.711176
C       1.312698     -1.580990     -0.705159
C       0.296451      1.212989     -0.528688
N       1.178305      1.641260      0.321651
H      -2.363389     -0.531947      0.674313
H      -2.414339      0.810905     -0.488765
H      -1.842137      1.096814      1.147694
H      -0.660536     -2.050230      0.065572
H       1.911359     -0.742629     -1.119450
H       1.382747      1.182883      1.208108
H       1.734428      2.455504      0.109628
