12
Extracted from Q-Chem output
N       1.954105      0.999998      0.248899
C       0.717129      0.433226      0.066513
O       0.705496     -0.909249      0.318435
C      -0.470012      0.919163     -0.295546
C      -1.393442     -0.265767     -0.392277
N      -0.672770     -1.309046      0.358584
H       2.703738      0.331948      0.315578
H       2.162504      1.777429     -0.352487
H      -0.695850      1.937331     -0.563654
H      -1.552676     -0.599948     -1.424182
H      -2.373735     -0.124768      0.068460
H      -0.903915     -1.178743      1.341487
