12
Extracted from Q-Chem output
N       1.955044      1.056201     -0.010507
C       0.909952      0.182783      0.197761
O       1.125937     -0.947121      0.643858
C      -0.391708      0.635258     -0.178325
C      -1.400286     -0.415703     -0.431912
N      -1.192148     -1.380507      0.546243
H       2.868611      0.651153      0.099384
H       1.868655      1.761093     -0.719450
H      -0.625419      1.685841     -0.290448
H      -1.443984     -0.833374     -1.442398
H      -2.359428      0.101074     -0.227182
H      -1.244975     -0.914245      1.452617
