13
Extracted from Q-Chem output
N      -2.048850     -0.667813      0.170477
C      -0.805464      0.063805      0.024545
C      -0.240747      1.288975     -0.178254
C       1.159419      1.010055     -0.188844
C       1.309135     -0.356152      0.006768
O       2.429931     -1.118574      0.075363
N       0.105147     -0.936606      0.138261
H      -2.645939     -0.698436     -0.648005
H      -2.595216     -0.460093      0.998485
H      -0.721888      2.245839     -0.300821
H       1.953699      1.728622     -0.327593
H       3.189629     -0.545336     -0.034138
H      -1.111244     -1.551328      0.266846
