15
smiles: [C:3]1(=[C:4](/[O:5][H:13])[H:11])\[C:6]([H:14])([H:15])[O:7]1.[H:8][H:12].[O:1]=[C:2]([H:9])[H:10]
O       -0.69592600      -1.64449900       0.09325300
C       -1.71435300      -1.08075100       0.36693000
C        1.18437000       1.55959700       0.00407400
C        2.13214300       0.66675200       0.17405200
O        1.93620800      -0.68182400       0.24209400
C        0.56551500       2.83436500      -0.15044100
O       -0.17363500       1.57844200      -0.15198100
H       -1.72327700      -3.94204500      -0.59565900
H       -1.73021500      -0.01774600       0.67523400
H       -2.69550600      -1.59178700       0.32757200
H        3.16697000       0.95785500       0.27389600
H       -2.26192100      -4.43633500      -0.73672900
H        0.99944400      -0.87191000       0.14569000
H        0.58850800       3.33914000      -1.11096100
H        0.38048500       3.45982000       0.71705500
