13
Extracted from Q-Chem output
O       1.643018      1.502484     -1.498446
C       1.895224      0.522834     -0.687806
C       0.699942     -0.068436     -0.081528
O       0.551087     -0.750400      1.043606
C      -0.852989     -0.998735      0.695386
C      -1.541505      0.291981      0.714366
C      -0.692131     -0.093806     -0.506258
H       2.620589      0.677743      0.155134
H       2.318515     -0.453638     -1.130695
H      -1.220366     -2.006520      0.807062
H      -2.605487      0.262415      0.514211
H      -1.205097      1.079657      1.376596
H      -1.061692     -0.099057     -1.517751
