13
Extracted from Q-Chem output
C       2.086688      0.332015     -0.419969
C       0.771108      0.070631     -0.244906
C      -0.019878     -1.101461     -0.449096
N      -1.353778     -0.819146      0.179384
C      -1.357485      0.620627      0.467140
C      -0.154226      1.114653      0.225933
H      -1.513138     -1.339856      1.045941
H       2.781006     -0.429524     -0.749403
H       2.474731      1.327447     -0.252302
H       0.332449     -2.099600     -0.228401
H      -2.117216     -1.056971     -0.451247
H      -2.272399      1.078838      0.808892
H       0.122714      2.150168      0.366738
