13
smiles: [O:1]=[C:2]([C:3]([H:9])([H:10])[H:11])[H:8].[O:4]=[C:5]([N:6]([H:7])[H:13])[H:12]
O       -1.64795100       0.23003400       0.93831200
C       -1.80399900      -0.90212700       0.57292000
C       -0.73974000      -1.74733800      -0.05907600
O        2.01243500       0.22297800      -0.29818200
C        1.92304300       1.35175200       0.11618700
N        0.81243600       1.88203600       0.67967900
H       -0.01131600       1.31333700       0.77032700
H       -2.79211500      -1.39549800       0.69250600
H       -0.59308300      -2.65176800       0.53716400
H        0.19473300      -1.19551400      -0.13902200
H       -1.07301300      -2.07096500      -1.04864000
H        2.76139100       2.07081100       0.07019800
H        0.79592400       2.82895100       1.00767000
