13
Extracted from Q-Chem output
O      -1.792130      0.336428      0.538084
C      -1.231584     -0.812818      0.709245
C      -0.095265     -1.239022     -0.065303
O       1.565822     -0.266877      0.348391
C       1.483180      0.975743      0.346225
N       0.375484      1.679056      0.298098
H      -0.613889      1.213194      0.355714
H      -1.317589     -1.314017      1.687768
H      -1.587844     -1.716041     -0.054157
H       0.355350     -2.193313      0.173662
H      -0.040102     -0.887994     -1.088671
H       2.419802      1.545175      0.380197
H       0.465522      2.680079      0.316044
