20
Extracted from Q-Chem output
C       2.983916     -0.123093     -0.140518
C       1.526274     -0.546342     -0.018299
C       0.590692      0.427412     -0.720412
N      -0.794902     -0.001346     -0.600258
C      -1.968237      1.261746     -0.778536
C      -1.613480      0.550120      0.472583
C      -2.576134     -0.400415      1.132321
H       3.143305      0.873360      0.278966
H       3.302841     -0.097177     -1.185270
H       3.640695     -0.813539      0.389824
H       1.381277     -1.543940     -0.440473
H       1.242292     -0.611215      1.036426
H       0.837253      0.483537     -1.784560
H       0.716279      1.437097     -0.307158
H      -1.503267      0.141659     -1.476617
H      -1.342530      2.154474     -0.893708
H      -0.986462      1.099421      1.174432
H      -3.286617      0.157298      1.745600
H      -3.138304     -0.947240      0.375148
H      -2.051256     -1.115203      1.770417
