16
Extracted from Q-Chem output
N       2.605184      0.504272      0.945283
C       1.910697     -0.272192      0.462615
C       0.997417     -1.244215     -0.131509
C      -0.445316     -1.108243      0.382891
C      -1.277852      0.006662     -0.247700
C      -0.754940      1.426539     -0.079279
O       0.316987      1.693309     -0.968500
H       1.115209      1.859626     -0.463590
H       1.037705     -1.121104     -1.215772
H       1.387208     -2.236656      0.104070
H      -0.421886     -0.987604      1.469626
H      -0.945585     -2.060061      0.190585
H      -1.395889     -0.179213     -1.320040
H      -2.280595     -0.041832      0.187762
H      -0.454343      1.603411      0.959648
H      -1.561618      2.130021     -0.306473
