16
Extracted from Q-Chem output
C      -1.316085     -0.236655      1.237808
C      -1.327341     -0.317595     -0.261564
N      -0.896727      1.369369     -0.914760
C      -0.077881      0.133998     -0.926378
C       1.240439      0.285276     -0.200871
C       1.906077     -1.020237      0.132111
O       1.430987     -2.104005     -0.069991
H      -0.744497      0.585055      1.678781
H      -2.326189     -0.222879      1.644892
H      -0.849908     -1.176670      1.556785
H      -1.932097      0.817522     -0.685687
H      -1.186541      1.514308     -1.883486
H       0.071158     -0.288497     -1.919149
H       1.133073      0.851312      0.728328
H       1.944273      0.867874     -0.805928
H       2.907122     -0.925494      0.603151
