17
smiles: [H:8][H:15].[O:1]1[C@@:2]2([H:9])[C:3]([H:10])([H:11])[C:4]([H:12])([H:13])[C:5]([H:14])=[C:6]([H:16])[C@@:7]12[H:17]
O        1.49072300       0.06124800       0.77824800
C        1.36279400      -0.61042400      -0.46019600
C        0.11794600      -1.42754900      -0.68011000
C       -1.13247600      -0.76446400      -0.09270100
C       -1.19984100       0.70435400      -0.39497100
C       -0.10738800       1.44690500      -0.53106700
C        1.24098100       0.84628400      -0.39546600
H       -0.09622600       0.72103500       2.70184000
H        2.28952800      -1.03765200      -0.83849500
H        0.24494300      -2.42573600      -0.25442700
H       -0.00059600      -1.55515600      -1.76125400
H       -1.13409700      -0.89880400       0.99293700
H       -2.02634300      -1.26754100      -0.46696100
H       -2.17885000       1.16470400      -0.47672500
H       -0.58135300       0.87700800       3.24469000
H       -0.17612300       2.50891400      -0.73635800
H        2.08642500       1.45876700      -0.69370100
