19
Extracted from Q-Chem output
C      -2.265732     -1.028142      0.309598
C      -0.979818     -0.243177      0.297309
C      -1.203727      1.239458      0.402047
C       0.178761     -0.897351      0.210756
O       2.235735     -1.141298     -0.959379
C       1.625752     -0.476327      0.148328
C       1.975198      1.001581      0.117228
H      -2.934009     -0.690272     -0.488017
H      -2.092720     -2.096281      0.181850
H      -2.800320     -0.877824      1.252350
H       1.727777     -0.923399     -1.744807
H      -1.828449      1.455932      1.273290
H      -1.758762      1.593711     -0.471691
H      -0.296062      1.825010      0.483686
H       0.106975     -1.981798      0.149802
H       2.122183     -0.918876      1.018604
H       1.508748      1.506602     -0.731607
H       3.056538      1.095647      0.013170
H       1.676379      1.507703      1.036222
