13
Extracted from Q-Chem output
O       1.786813      0.434230      1.060261
C       0.984068      0.294077     -0.057842
C       0.322700     -1.083541     -0.278783
C      -1.039994     -0.395373     -0.120923
N      -0.370035      0.904861      0.108353
C      -1.218256      0.644248     -1.169621
H       1.516351     -0.194461      1.733948
H       1.494961      0.746057     -0.904736
H       0.583340     -1.780505      0.522155
H       0.485284     -1.545950     -1.249208
H      -1.790088     -0.745152      0.582569
H      -0.584026      1.559673      0.846188
H      -2.157978      1.169319     -0.950211
