10
Extracted from Q-Chem output
N       0.746657     -0.639789     -0.552445
C       1.159260     -0.218831      0.619615
O       0.443462      0.670693      1.199894
C      -0.755711      0.925609      0.319067
C      -0.673033     -0.195813     -0.617457
N      -1.723461     -0.736460     -0.977195
H       1.139630     -1.448795     -1.008125
H       2.030999     -0.606672      1.135593
H      -0.601051      1.929228     -0.076867
H      -2.010937      0.289518      0.046213
