12
Extracted from Q-Chem output
C      -1.034258      0.561669      0.091407
C       0.197603      1.265166     -0.187343
C       1.303133      0.471634      0.010267
C       0.900459     -0.857468      0.020676
O      -0.849675     -1.819488      0.930427
C      -0.560472     -1.052830     -0.073643
H      -1.244332      0.529815      1.158693
H      -1.913358      0.895658     -0.458013
H       0.248897      2.272753     -0.588153
H       2.329823      0.812431      0.025021
H       1.540287     -1.717468      0.168937
H      -0.913294     -1.327341     -1.095111
