12
Extracted from Q-Chem output
O       0.202960     -1.494442     -1.086211
C      -0.082100     -0.355329     -0.328426
C      -1.346124     -0.294081      0.430263
C      -1.296627      0.324638     -0.915986
O       0.806961      1.698685      0.619993
C       1.137382      0.428751      0.101639
H       0.080908     -2.269181     -0.532841
H      -2.039631     -1.109789      0.608059
H      -1.328488      0.463020      1.215447
H       0.597759      2.284975     -0.110675
H       1.666773     -0.106521      0.893684
H       1.804643      0.499047     -0.764302
