16
Extracted from Q-Chem output
C      -1.395284      1.080389      1.078659
C      -1.253555     -1.070333     -0.359459
N      -1.269855      0.460289     -0.233459
C      -0.058633     -0.252801     -0.691404
C       1.150263     -0.254326      0.209865
C       2.345186     -0.907082     -0.434093
O       2.429534     -1.200436     -1.594169
H      -0.853834      2.028357      1.119529
H      -2.452048      1.250865      1.283149
H      -1.012580      0.385984      1.820847
H      -1.819946     -1.298194     -1.267420
H      -1.695874      1.007852     -0.968883
H       0.190738      0.022217     -1.716164
H       0.937489     -0.789387      1.139489
H       1.477750      0.757337      0.488616
H       3.193296     -1.096734      0.256100
