16
Extracted from Q-Chem output
C      -1.888318      0.658305      1.045179
C      -2.194842     -0.057819     -0.104879
N      -0.542604     -0.974005     -0.834356
C       0.544909     -0.507991     -0.312780
O       0.591228     -0.091254      0.898025
O       1.658630     -0.425662     -1.051397
C       2.822971      0.099245     -0.417404
H      -2.230186      0.265473      1.996853
H      -0.488091      0.248955      1.115992
H      -1.798729      1.736649      0.975032
H      -2.707585     -1.006428     -0.035094
H      -2.333205      0.457410     -1.047177
H      -0.462896     -1.127016     -1.831579
H       3.611666      0.035065     -1.162791
H       2.668914      1.136601     -0.120552
H       3.088182     -0.489663      0.460543
