13
Extracted from Q-Chem output
C       1.718445      0.556159      0.123266
C       0.331236      0.132736     -0.216324
C      -0.362102     -1.090416      0.279617
N      -1.629710     -0.761990     -0.445367
C      -1.785329      0.527661     -0.108636
O      -0.633988      1.121365      0.035131
H       1.964372      1.507367     -0.348912
H       1.868563      0.659037      1.205334
H       2.423827     -0.190050     -0.243216
H      -0.794240     -0.477356     -1.330601
H       0.038349     -2.030703     -0.087756
H      -0.529628     -1.134044      1.370379
H      -2.662700      1.139071     -0.261992
