12
Extracted from Q-Chem output
O       1.568916     -2.010140      0.159431
C       1.169774     -0.900899      0.368693
C       0.495061     -0.039856     -0.675142
C      -2.009061     -0.441247      0.807287
O      -1.626760      0.736595      0.468286
C      -0.345976      1.095446     -0.142797
H       1.319339     -0.420975      1.361091
H       1.307900      0.434182     -1.238589
H      -0.040767     -0.675384     -1.381985
H      -1.202624     -1.172033      0.537672
H       0.185873      1.658568      0.627060
H      -0.615827      1.785744     -0.939995
