12
Extracted from Q-Chem output
C      -1.781400      0.772474     -0.492939
C      -0.377633      0.469285     -0.110298
N       0.218015     -0.624385     -0.492741
C       1.475295     -1.090854     -0.260193
C       2.340597     -0.320731      0.515440
N       3.009342      0.364821      1.165516
H      -1.844504      1.711853     -1.048372
H      -2.207014     -0.014710     -1.119660
H      -2.418287      0.877343      0.389437
H       0.201939      1.147380      0.502761
H      -0.342773     -1.243932     -1.064555
H       1.747608     -2.038940     -0.685560
