12
Extracted from Q-Chem output
C      -1.329450      0.929949     -0.370849
C      -0.650888     -0.237265      0.231037
N      -0.050997     -1.190781     -0.488412
C       1.252953     -1.023628     -0.015801
C       1.900122      0.211029     -0.229621
N       2.415322      1.225849     -0.439397
H      -0.580454      1.717307     -0.533604
H      -1.746989      0.679694     -1.349589
H      -2.105984      1.330724      0.278996
H      -0.609738     -0.361346      1.303356
H      -0.301116     -1.413544     -1.443123
H       1.812122     -1.871764      0.353358
