14
Extracted from Q-Chem output
C      -2.129652      0.783111      0.905917
N      -0.900873      0.084601      0.590253
C       1.643204     -2.453182     -0.630877
C       1.470787     -1.176578     -0.502587
C       1.302716      0.110268     -0.373644
C       0.015253      0.726466      0.019972
O      -0.104753      2.052717     -0.275374
H      -2.570331      1.257399      0.023388
H      -1.960819      1.569720      1.647912
H      -2.845920      0.072163      1.315327
H       1.477240     -2.946921     -1.581111
H       1.942806     -3.059300      0.216073
H       2.149038      0.766989     -0.559039
H       0.649535      2.350528     -0.787752
