20
smiles: [C:1]([C:2](=[C:3]([H:12])[H:13])[H:11])([H:7])([H:8])[H:9].[C:4](=[C:5]([C:6]([H:18])([H:19])[H:20])[H:16])([H:14])[H:15].[H:10][H:17]
C        2.29846600       0.04963600      -1.11344700
C        2.13920000      -0.90009700       0.03063800
C        1.74183800      -0.56456400       1.24812400
C       -2.21427800      -0.02659900       1.29674700
C       -2.51990900       0.06840400       0.01217700
C       -1.62904800      -0.34038500      -1.11729500
H        2.04845300       1.07067700      -0.82193400
H        3.32500400       0.04109700      -1.48897800
H        1.65349600      -0.23594900      -1.94857800
H        0.02785900       2.75862100       0.15155600
H        2.37101700      -1.94261200      -0.17583800
H        1.49876700       0.46265300       1.50100200
H        1.64165500      -1.30146500       2.03566100
H       -2.90760500       0.28499300       2.06842000
H       -1.25837800      -0.42202600       1.62532900
H       -3.49142800       0.47061900      -0.26634800
H       -0.47751300       2.23955700       0.32342700
H       -0.68013600      -0.73587600      -0.75237000
H       -1.41826400       0.50644000      -1.77554500
H       -2.10750500      -1.10766400      -1.73150800
