14
Extracted from Q-Chem output
O       1.308948      1.008306      1.612450
C       1.493310      1.265968      0.453896
C       0.476074      1.035676     -0.638798
C      -0.266180     -0.277611     -0.735761
C      -0.136920     -1.371437      0.329407
C      -1.399784     -0.666820      0.432491
N      -0.879703      1.200905     -0.426533
H       2.457429      1.704222      0.117751
H       0.877492      1.274325     -1.635454
H      -0.490974     -0.628436     -1.734224
H       0.584336     -1.208822      1.118491
H      -0.129005     -2.354458     -0.123477
H      -1.585898     -0.028665      1.275930
H      -2.271955     -1.051933     -0.077590
