16
Extracted from Q-Chem output
C       2.052713     -0.020149      0.138624
O       0.892136     -0.273177      0.892559
C      -0.303323     -0.003779      0.218479
C      -0.589765      1.456936     -0.014872
C      -0.754775     -1.030216     -0.778849
C      -1.411582     -0.929098      0.577231
H       2.895844     -0.399154      0.714823
H       2.021826     -0.534897     -0.829168
H       2.205310      1.050484     -0.038895
H      -1.577182      1.585402     -0.459678
H      -0.564718      1.999798      0.932099
H       0.138303      1.908123     -0.692447
H      -1.306953     -0.700988     -1.649960
H      -0.103095     -1.878155     -0.944528
H      -1.179642     -1.703190      1.295921
H      -2.415097     -0.527941      0.638660
