16
Extracted from Q-Chem output
C      -1.773989      0.462507     -0.687173
C      -0.805400     -0.219905      0.230482
C      -0.237045      0.406515      1.356186
C       0.868409      0.334620     -0.233289
O       0.857644      1.267345     -1.044726
C       1.642951     -0.966894     -0.402632
H      -1.237770      0.809806     -1.578893
H      -2.229302      1.340870     -0.227880
H      -2.570686     -0.219410     -0.983338
H      -0.835285     -1.302356      0.252939
H       1.210872      0.667124      0.896138
H       0.111935     -0.176236      2.202270
H      -0.439439      1.455468      1.546767
H       1.541600     -1.625989      0.460024
H       1.284942     -1.478038     -1.296041
H       2.695035     -0.718655     -0.545309
