19
Extracted from Q-Chem output
C      -2.211326     -0.110253      0.928071
C      -1.231072      0.871803      0.297563
C      -0.408257      0.248488     -0.805113
C       0.946541      0.780765     -1.162877
C       0.813626     -0.589427     -0.548115
C       1.361174     -0.845628      0.828280
O       2.760262     -1.064699      0.809250
H      -2.895233     -0.516755      0.179228
H      -2.812556      0.369536      1.702385
H      -1.685953     -0.952096      1.384442
H      -0.576188      1.288094      1.067340
H      -1.777811      1.723272     -0.119502
H      -1.006806     -0.091133     -1.645173
H       1.224203      0.862505     -2.205405
H       1.339551      1.571844     -0.532238
H       0.960743     -1.422774     -1.226761
H       1.111966     -0.018260      1.504067
H       0.927283     -1.754221      1.251053
H       3.159853     -0.351060      0.307008
