19
Extracted from Q-Chem output
C      -1.558909      0.951143      1.372636
C      -1.913481      0.444450      0.161361
C      -0.125739      0.317784     -1.289695
C       0.995861      0.839561     -0.794313
C       0.953045     -0.654478     -0.935885
C       0.885303     -1.549714      0.277188
O       2.157446     -1.733565      0.871250
H       0.102318      1.286313      1.292957
H      -1.371767      0.296985      2.216304
H      -1.740199      1.993240      1.607557
H      -2.395387      1.081778     -0.567776
H      -2.041115     -0.620774      0.020916
H      -0.787129      0.477163     -2.121918
H       1.675626      1.648388     -1.006437
H       0.715960      1.219686      0.729596
H       1.529710     -1.099680     -1.750010
H       0.169044     -1.154441      1.004436
H       0.546799     -2.547020     -0.012754
H       2.514952     -0.862683      1.059064
