10
Extracted from Q-Chem output
N      -1.107350      1.095138     -0.662432
C      -0.225675      0.318169     -0.184328
O       1.078756      0.647865     -0.248063
C       1.944875     -0.267981      0.299990
O       3.110807     -0.080775      0.297186
C      -1.669472     -0.898101      0.331769
O      -1.614866     -1.913468      0.866450
H      -0.893974      1.977601     -1.105874
H       1.419687     -1.141436      0.712829
H      -2.057683      0.258028     -0.304217
