13
Extracted from Q-Chem output
N      -1.681288      0.349523     -0.022704
C      -0.311835      0.127128     -0.453598
C       0.258945     -1.120853      0.188377
O      -0.473315     -2.224083      0.269023
N       1.446148     -1.004990      0.634007
C       1.783867      0.358277      0.403844
C       0.814238      1.082671     -0.160052
H      -2.164622      0.997096     -0.627578
H      -1.707706      0.722437      0.917619
H      -1.381767     -1.971017      0.048416
H      -0.335961     -0.069130     -1.533719
H       2.768766      0.691712      0.700343
H       0.847411      2.123621     -0.443486
