13
Extracted from Q-Chem output
N      -1.776094      0.889814     -0.267537
C      -0.474201      0.441823     -0.113141
C      -0.093426     -0.905013     -0.091450
O      -0.917473     -1.968691      0.135754
N       1.333714     -1.018320      0.107660
C       1.754587      0.266055      0.124805
C       0.709228      1.172395      0.007471
H      -1.945799      1.820518      0.073282
H      -2.471800      0.232561      0.048931
H      -0.538764     -2.491756      0.847594
H       0.787290     -1.170780     -1.007008
H       2.813276      0.478886      0.145951
H       0.799289      2.249263     -0.012998
