18
Extracted from Q-Chem output
C       2.003798     -0.517492     -0.354384
C       0.848410     -0.548547      0.640092
C      -0.405425      0.146258      0.146537
C      -0.275462      1.632384     -0.094336
C      -1.721609     -0.357743      0.658911
C      -1.310858     -0.631685     -0.762647
H       1.704924     -0.954495     -1.310252
H       2.859666     -1.081604      0.020422
H       2.343304      0.501925     -0.547627
H       0.603428     -1.589256      0.873753
H       1.162285     -0.090271      1.584676
H       0.042310      2.148133      0.816160
H      -1.228235      2.063153     -0.407741
H       0.455545      1.850467     -0.876282
H      -1.715911     -1.187218      1.355316
H      -2.512352      0.362046      0.830383
H      -1.825417     -0.100416     -1.553700
H      -1.028402     -1.645637     -1.019281
