10
Extracted from Q-Chem output
O       2.358959      0.317550      0.132818
C       1.155268      0.260331      0.014260
C       0.277047      1.408824      0.274913
C      -0.996545     -0.423188     -0.214077
N       0.375086     -0.768395     -0.419396
H       0.074480      1.511497      1.350174
H      -1.007999      0.743596     -0.234892
H      -1.424131     -0.759065      0.731500
H      -1.649100     -0.671570     -1.052413
H       0.716847     -1.663064     -0.720517
