15
Extracted from Q-Chem output
C       1.474616      1.273601      0.131810
C       1.444965      0.203335     -0.912369
C      -0.002728     -1.152975      0.743222
O      -1.184313     -1.255086      1.261453
C      -2.309841     -0.783123      0.811635
C       0.245980      1.030219     -0.673286
C       0.172386     -0.474247     -0.540950
H       1.492316      1.002238      1.183848
H       2.041720      2.165419     -0.113706
H       2.033752      0.100872     -1.807998
H       0.770462     -1.644256      1.311613
H      -3.163940     -0.999368      1.429056
H      -2.328735     -0.184357     -0.084778
H      -0.281220      1.679034     -1.352495
H      -0.368098     -0.943044     -1.371711
