9
Extracted from Q-Chem output
O       0.056170     -1.293528      0.855645
C       0.696372     -0.632647     -0.241347
C       0.689967      0.866528      0.059153
C      -0.637478      0.888773      0.179839
C      -0.748112     -0.608427     -0.110436
H       1.326320     -1.220055     -0.893351
H       1.476683      1.581816      0.253980
H      -1.353575      1.628297      0.509784
H      -1.504893     -1.171073     -0.637636
