11
Extracted from Q-Chem output
C      -0.795965     -0.438625      0.689192
C       0.566022      0.240699      0.420884
C       1.559111     -0.509982     -0.392321
O       1.325333     -1.548718     -0.949177
C      -0.684240      0.661385     -0.249371
N      -1.132288      1.484789     -1.072551
H      -1.259166     -0.265897      1.652965
H      -2.136038      1.358005     -1.200022
H      -0.885672     -1.441227      0.284047
H       0.969887      0.915171      1.167528
H       2.554693     -0.033948     -0.474417
