18
Extracted from Q-Chem output
C      -1.140835      0.638869      1.136734
C      -1.251253     -0.736232      0.495682
C       0.091905     -1.475735      0.435810
C       1.038022     -0.870961     -0.555717
C       2.110361     -0.154271     -0.250441
C       0.102768      2.406195     -1.193768
H      -0.382037      1.265114      0.648870
H      -0.839881      0.558442      2.184311
H      -2.087405      1.179850      1.100406
H      -1.963429     -1.343334      1.061094
H      -1.660068     -0.648262     -0.516649
H      -0.086641     -2.521463      0.168528
H       0.550553     -1.474772      1.429331
H       0.791537     -1.028637     -1.604770
H       2.391171      0.030330      0.781331
H       2.748146      0.273240     -1.014419
H       0.560172      1.701952     -1.915446
H      -0.982493      2.223405     -1.336367
