13
Extracted from Q-Chem output
C       1.907763      0.047862      0.005176
C       0.668997     -0.802969     -0.113710
N      -0.418852     -0.157964     -0.693727
C      -1.102597      0.962607     -0.092330
C      -1.761914     -0.368037     -0.238739
O       0.624131     -1.960595      0.220131
H       1.879623      0.585330      0.956294
H       1.968370      0.781009     -0.797873
H       2.786285     -0.592988      0.004150
H      -0.804232      1.259603      0.908230
H      -1.361205      1.776964     -0.758848
H      -2.505734     -0.516095     -1.012048
H      -1.886108     -0.974510      0.651615
