13
Extracted from Q-Chem output
C       2.140417     -0.124996      0.064879
C       0.640964     -0.311884      0.028993
N      -0.034404      0.646332     -0.599269
C      -1.416426      0.904411     -0.117225
C      -1.771081     -0.456496     -0.354332
O       0.136184     -1.317485      0.555004
H       2.413856      0.225529      1.061897
H       2.468812      0.607167     -0.667716
H       2.632558     -1.081715     -0.100644
H      -1.472709      1.227121      0.922844
H      -1.855728      1.639385     -0.787137
H      -1.832539     -0.790370     -1.381748
H      -2.051342     -1.154704      0.416603
