14
smiles: [C:1](=[N+:2]1[C:3]([H:11])=[C:4]([H:12])[C:5]([H:13])=[C:6]1[O-:7])([H:8])[H:9].[H:10][H:14]
C       -1.73569900      -0.38138600       0.15186600
N       -0.47635500      -0.54120600       0.05542600
C        0.40567800      -1.43705900       0.61302400
C        1.65553600      -1.12118100       0.13738900
C        1.66767100      -0.02689500      -0.73793200
C        0.37231800       0.46130100      -0.89742500
O       -0.23866600       1.31535000      -1.47183400
H       -2.16872900       0.43297400      -0.41872000
H       -2.33428500      -1.03202000       0.77724600
H       -1.54972700       3.06378800       0.97648700
H        0.08671500      -2.21103300       1.28990400
H        2.54185700      -1.67325500       0.41962600
H        2.52303900       0.40043800      -1.23083300
H       -1.24255400       2.81830400       0.34421600
