14
Extracted from Q-Chem output
C      -1.513734      0.196930      0.770367
N      -0.305832     -0.210168      0.440541
C       0.158969     -1.455559      0.046601
C       1.396205     -1.262061     -0.496953
C       1.711047      0.116244     -0.556887
C       0.656943      0.814103     -0.003621
O       0.248453      2.000732      0.033204
H      -1.597367      1.050890      1.425493
H      -2.327041     -0.518840      0.728169
H      -1.858589      1.337987     -0.467744
H      -0.381343     -2.354313      0.290636
H       2.043494     -2.064104     -0.820190
H       2.593376      0.569213     -0.974033
H      -1.142856      1.823518     -0.446333
