15
Extracted from Q-Chem output
O      -2.400351      1.013681      0.464439
C      -2.023223     -0.272506      0.893629
C      -0.795502     -0.770499      0.167623
O       0.267565      0.104661      0.489897
C       1.439712     -0.164216     -0.231410
C       3.049601      1.659098     -0.676490
C       2.479809      0.850718      0.154883
H      -1.630538      1.581947      0.552315
H      -2.861730     -0.939423      0.685308
H      -1.834458     -0.291554      1.974896
H      -0.972561     -0.761506     -0.916283
H      -0.556124     -1.798127      0.475001
H       1.253571     -0.122853     -1.311650
H       1.816159     -1.168099      0.005681
H       2.793675      0.938032      1.195957
