15
Extracted from Q-Chem output
O      -2.558582      0.883279      0.226741
C      -2.031637     -0.250273      0.871143
C      -0.755296     -0.724897      0.215893
O       0.189215      0.323196      0.346381
C       1.367401      0.086114     -0.347240
C       2.229541      1.530075     -0.312296
C       2.889608      0.788289      0.444493
H      -1.863541      1.546804      0.198325
H      -2.786024     -1.036483      0.805409
H      -1.837345     -0.050899      1.932917
H      -0.938511     -0.937946     -0.845216
H      -0.385309     -1.639330      0.700947
H       1.227090     -0.000743     -1.426974
H       1.801213     -0.879211     -0.023741
H       3.477781      0.221377      1.137015
