10
Extracted from Q-Chem output
N       1.784466     -0.250713     -0.354964
C       0.459820     -0.176161     -0.029182
C      -0.561237      0.631427     -0.431202
C      -1.668447      0.091755      0.263259
N      -1.356780     -0.928022      1.005793
O       0.014314     -1.099239      0.817811
H       2.360213     -0.748203      0.303138
H       2.194574      0.595609     -0.706863
H      -0.529194      1.463411     -1.111870
H      -2.697729      0.420135      0.244080
