10
Extracted from Q-Chem output
N       1.831021     -0.143326     -0.354053
C       0.575100     -0.356243      0.123982
C      -0.482716      0.539541     -0.335503
C      -1.622518      0.110518      0.250330
N      -2.128797     -0.719141      1.009892
O       0.327800     -1.277515      0.897620
H       2.575699     -0.679318      0.052052
H       2.057998      0.697138     -0.849580
H      -0.391655      1.365131     -1.017754
H      -2.736101      0.448373      0.232142
