9
Extracted from Q-Chem output
C       0.952380     -1.142399      0.121638
C       0.784173      0.070509     -0.034602
C       0.010370      1.287776     -0.085628
C      -1.282745      0.484334      0.182602
C      -0.842319     -0.770626      0.291433
H       1.474396     -2.070776      0.185386
H       0.254997      1.998544      0.700805
H       0.017623      1.777924     -1.056795
H      -1.265510     -1.751953      0.446534
