15
Extracted from Q-Chem output
C      -1.154321     -1.179836     -1.009847
C      -0.665819     -0.134219     -0.043737
C      -1.558580      0.207345      1.119139
C       0.483789      0.446897     -0.202069
C       1.664166      1.001007     -0.334481
C       2.875552      0.413920      0.281604
O       2.903120     -0.596516      0.933950
H      -2.103655     -0.868773     -1.453121
H      -0.436263     -1.359169     -1.807760
H      -1.328288     -2.120589     -0.481978
H       1.785450      1.917544     -0.903908
H      -1.745572     -0.686104      1.719699
H      -1.115501      0.968090      1.758940
H      -2.524227      0.570744      0.758383
H       3.805761      0.989284      0.098841
