12
Extracted from Q-Chem output
C      -1.820923     -0.158637      0.004472
C      -0.502478      0.336133      0.370828
C       0.961284     -1.183424     -0.484296
N       1.699112     -0.133282     -0.499391
N       1.172640      1.122759     -0.312975
C       0.320260      1.201596      0.830763
H      -1.974827      0.025192     -1.061401
H      -1.890352     -1.234594      0.160865
H      -2.600165      0.376030      0.555028
H       1.575288     -2.096947     -0.517892
H       2.691679     -0.108104     -0.705718
H       0.438411      1.893638      1.655117
