13
Extracted from Q-Chem output
O       2.909257      0.861104     -1.089441
C       2.398577      0.146422      0.015462
C       0.946417     -0.037234     -0.032277
C      -0.247647     -0.141094     -0.073979
C      -2.484827     -0.502374      1.057335
C      -1.681743     -0.288730     -0.149526
O      -2.475853      0.750612      0.406525
H       2.405575      1.672355     -1.183333
H       2.661049      0.634158      0.962272
H       2.891318     -0.827112      0.004496
H      -1.981812     -0.531261      2.018936
H      -3.411458     -1.064070      0.983518
H      -2.057022     -0.679850     -1.090962
