13
Extracted from Q-Chem output
O       2.670216      1.267203     -0.155719
C       2.221621     -0.067159     -0.142293
C       0.768108     -0.200259     -0.238115
C      -0.432974     -0.303305     -0.346609
C      -1.904588     -0.160363      1.091992
C      -1.962390     -0.350705     -0.344276
O      -2.685274      0.623459     -0.837720
H       2.151175      1.776454      0.469974
H       2.560057     -0.599429      0.756527
H       2.684629     -0.558767     -1.000277
H      -1.760532      0.868957      1.397034
H      -2.114788     -0.917283      1.847465
H      -2.214761     -1.381198     -0.655156
