15
Extracted from Q-Chem output
O      -0.101280      2.573472     -0.028153
C      -0.139650      1.375795      0.026056
C      -1.309906      0.482612     -0.368089
C      -1.052392     -0.819175      0.399004
C       0.370593     -0.830227      0.975805
C       1.462007     -0.482109     -0.502770
C       0.945011      0.478215      0.571107
H      -1.306916      0.354287     -1.453704
H      -2.247220      0.974910     -0.113571
H      -1.673807     -0.862191      1.298611
H      -1.283060     -1.726762     -0.158918
H       1.149309     -1.531718     -0.072341
H       1.038558     -0.350847     -1.492868
H       2.541642     -0.580390     -0.480164
H       1.710483      0.966411      1.162817
