13
Extracted from Q-Chem output
C       1.299683      0.421427     -0.699202
C      -0.151635      0.000630     -0.679651
C      -0.555485     -1.200078      0.110358
C      -1.069648      0.573813      0.373203
O      -0.340797      1.021766      1.448432
H       1.747277      0.361938      0.291855
H       1.391681      1.452723     -1.044851
H       1.873338     -0.214545     -1.375358
H      -0.605256      0.027251     -1.667247
H       0.119323     -1.519527      0.894997
H      -1.145188     -1.970760     -0.374513
H      -1.609791     -0.551691      0.663742
H      -0.968632      1.365963      2.084788
