19
Extracted from Q-Chem output
C       2.335719      0.361453     -0.641448
C       1.083642     -0.506226     -0.651422
C       0.169858     -0.218880      0.530077
C      -0.525621      1.164461      0.618389
C      -1.983945      0.675142      0.791552
C      -2.125530     -0.297462     -0.343165
C      -1.152102     -0.984416      0.587083
H       2.983969      0.136103     -1.489490
H       2.915055      0.205109      0.271801
H       2.080844      1.422743     -0.691597
H       0.539244     -0.355447     -1.588352
H       1.366437     -1.564394     -0.628209
H       0.732951     -0.391694      1.451538
H      -0.443986      1.753979     -0.300746
H      -0.176595      1.779447      1.446113
H      -1.615107     -0.518052      1.603552
H      -3.092922     -0.783654     -0.427206
H      -1.714333     -0.013953     -1.308199
H      -1.255014     -2.053053      0.764747
