15
Extracted from Q-Chem output
C       1.546885      0.552822     -0.332106
C       0.315243     -0.025653      0.341484
O       0.588635     -0.459847      1.649236
C      -0.882721      0.935120      0.361837
C      -1.877883     -0.868002     -0.012943
O      -1.296068      0.046348     -1.189424
C      -0.499356     -0.967246     -0.513480
H       1.309523      0.894574     -1.340335
H       1.942646      1.391777      0.242542
H       2.326850     -0.209216     -0.413217
H       1.429582     -0.920515      1.658359
H      -1.422317      1.022651      1.294053
H      -0.785194      1.877224     -0.175828
H      -2.558222     -1.580112     -0.490871
H      -0.106822     -1.741419     -1.168745
