12
Extracted from Q-Chem output
O       0.102202     -1.329892     -1.115332
C       0.013288     -0.178022     -0.336545
C      -0.460157     -0.277596      1.090841
C      -0.297400      1.068274     -1.088029
O      -0.426463      2.151440     -0.583205
C       0.985605     -0.063078      0.802789
H      -0.778644     -1.686599     -1.247341
H      -1.035136      0.557726      1.468170
H      -0.769458     -1.261623      1.417855
H      -0.398256      0.920495     -2.183041
H       1.655866     -0.903815      0.916637
H       1.402782      0.917633      0.987822
