12
Extracted from Q-Chem output
O      -0.026744     -1.010634     -1.378587
C      -0.113013     -0.170909     -0.244445
C      -0.980302     -0.650371      0.800044
C      -0.210881      1.260659     -0.746876
O       0.766880      1.850516     -0.267917
C       1.199773      0.113973      0.439080
H      -0.204485     -1.900476     -1.050414
H      -1.936224     -1.089193      0.534695
H      -0.869766     -0.266985      1.803107
H      -0.970792      1.784379     -1.331013
H       1.217208      0.280829      1.506943
H       2.122588     -0.204416     -0.036729
