11
Extracted from Q-Chem output
C      -1.798869      0.197889     -0.380370
C      -0.652912     -0.767967     -0.282158
O      -0.682356     -1.914804     -0.653741
C       0.630229     -0.230845      0.247692
O       0.822150     -0.248781      1.470401
C       2.561462      0.545802      0.156103
O       3.259013      0.893348     -0.672907
H      -2.093734      0.517399      0.622112
H      -2.638182     -0.283082     -0.878483
H      -1.495114      1.088546     -0.934570
H       1.953440      0.209927      1.377032
