17
Extracted from Q-Chem output
C       1.987948      0.340808     -0.774423
C       0.706353     -0.342159     -0.475558
C       0.340239     -1.584029     -0.160458
C      -1.128271     -1.254713     -0.025676
C      -0.709428      0.201599     -0.402606
C      -0.988876      1.300397      0.608529
O      -0.366491      1.100338      1.861085
H       2.823740     -0.359618     -0.760338
H       1.955293      0.821532     -1.755647
H       2.178456      1.121942     -0.034069
H       0.888683     -2.512650     -0.053375
H      -0.534266      0.201126      2.151026
H      -1.556773     -1.367543      0.976051
H      -1.803951     -1.738324     -0.734750
H      -1.112946      0.514728     -1.371472
H      -2.075399      1.416538      0.727343
H      -0.599838      2.250627      0.234863
