10
Extracted from Q-Chem output
O       1.110289     -0.617684      1.006291
C       1.251454      0.510030      0.171989
C       0.374264     -0.975653     -0.115061
C      -0.903631     -0.101044     -0.129773
O      -1.072274      0.507682      1.117235
C      -0.203231      1.126201      0.172142
H       1.103612     -0.320153     -0.931043
H       0.508597     -1.997420     -0.454132
H      -1.756758     -0.266445     -0.773683
H      -0.418111      2.135965     -0.141659
