13
smiles: [C:1]([O:2][H:13])([H:6])([H:7])[H:8].[C:3]1([H:9])([H:10])[C:4]([H:11])([H:12])[O:5]1
C        1.93706000       1.20025200       0.80168800
O        0.63880600       0.68766500       1.01190500
C       -0.82437700      -1.29599400      -1.15687100
C       -1.95148600      -0.68550000      -0.46156000
O       -1.02557200       0.10481200      -1.18379900
H        1.92276300       2.25132000       0.49124800
H        2.46443400       1.13408200       1.75263900
H        2.49661200       0.62063400       0.05866800
H       -0.98952900      -1.80740300      -2.10075300
H        0.03825700      -1.63036000      -0.58777600
H       -2.94532400      -0.74769000      -0.89533000
H       -1.91650900      -0.57125100       0.61806000
H        0.15007700       0.74054000       0.19019900
