17
Extracted from Q-Chem output
C      -1.734765      1.147799      0.074681
C      -1.259824     -0.231576     -0.344256
N      -0.049638     -0.634316      0.348307
C       0.340604     -1.865043      0.768380
C       1.132823      0.003771      0.485531
C       1.830036      0.632703     -0.676046
H      -2.641821      1.419399     -0.467601
H      -1.947871      1.172815      1.144383
H      -0.979103      1.906717     -0.133767
H      -2.004822     -0.994710     -0.105443
H      -1.105541     -0.276823     -1.429241
H      -0.233290     -2.403211      1.521415
H       1.127528     -2.382930      0.237696
H       1.541746      0.078146      1.481609
H       2.691838      1.216486     -0.354395
H       1.161196      1.291041     -1.240060
H       2.183937     -0.129819     -1.381389
