11
Extracted from Q-Chem output
N       2.809615     -0.743585      0.564350
C       1.708074     -0.581216      0.072437
C       0.556931     -0.279521     -0.471225
C      -0.587833      0.210993      0.326512
C      -1.710789      0.907349     -0.294911
O      -1.837585     -0.440104      0.127568
H       3.004138     -1.677379      0.915577
H       0.435974     -0.432195     -1.536761
H      -0.364763      0.432007      1.367261
H      -2.281765      1.633247      0.277255
H      -1.708553      1.058472     -1.371418
