19
smiles: [C:1]([C:2]([O:3][H:17])([H:11])[H:12])([H:8])([H:9])[H:10].[C:4]1([H:13])([H:14])[C:5]([H:15])([H:16])[O:6][C:7]1([H:18])[H:19]
C        2.95335800       0.33325000      -1.81496300
C        1.81198400       0.16222500      -0.83018400
O        1.07133500       1.35288200      -0.63664400
C       -1.10131900      -0.32098200       1.23277600
C       -2.47389100      -0.87263600       1.63902800
O       -3.06336200      -0.44470200       0.40294700
C       -1.82281000       0.11685600      -0.04832900
H        3.62018600       1.13453300      -1.49273700
H        2.57957800       0.58081000      -2.81241700
H        3.53324700      -0.58863900      -1.89723700
H        2.19865500      -0.10395100       0.15513300
H        1.15263900      -0.65526600      -1.15018900
H       -0.32391500      -1.06930500       1.09264900
H       -0.71946400       0.48657700       1.85401500
H       -2.53547000      -1.95750100       1.76276300
H       -2.94286000      -0.38831000       2.50035300
H        0.69894900       1.62042000      -1.47879800
H       -1.90096900       1.19691600      -0.20298600
H       -1.47732400      -0.35200300      -0.97393900
