12
Extracted from Q-Chem output
O      -2.525029      0.516592     -1.217944
C      -1.586737     -0.205481     -1.031316
C      -0.203877      0.271568     -0.673849
C       0.228281     -0.284081      0.689452
C       1.610946      0.193541      1.046973
O       2.549712     -0.528047      1.233086
H      -0.462579      0.073010      1.460922
H      -1.700783     -1.308289     -1.105188
H       0.486773     -0.085835     -1.445357
H      -0.199852      1.362856     -0.683149
H       0.224580     -1.375372      0.698604
H       1.724340      1.296395      1.121167
