12
Extracted from Q-Chem output
O      -1.891832      0.179894      0.464218
C      -1.395413     -0.137681     -0.671291
C       0.023664      0.025152     -0.990986
C       0.719158     -0.566909      0.189827
C       1.378798      0.275375      1.108497
O       1.944922     -0.039119      2.147693
H      -1.124483      0.393384      1.053473
H      -2.131232     -0.578521     -1.343201
H       0.237287     -0.406074     -1.971713
H       0.237060      1.106167     -1.033221
H       0.718394     -1.641608      0.321082
H       1.385948      1.353130      0.785546
