9
Extracted from Q-Chem output
N      -1.255812     -0.947247     -0.756294
C      -0.572097     -0.147719      0.140738
C       0.602323      0.653953     -0.286038
N       1.783619      0.287869      0.136001
N       2.794400     -0.037779      0.480443
O      -0.384931     -0.865330      1.220541
H      -2.091734     -1.221906     -0.234878
H      -1.367695      0.702827      0.192809
H       0.558794      1.561233     -0.865554
