14
Extracted from Q-Chem output
C      -1.231813     -1.196187      0.180068
C      -0.288362     -0.024727      0.322863
C       1.138560     -0.348812     -0.082559
O       2.069860      0.622847      0.299569
C      -0.083780      1.950665     -0.980370
O      -0.866152      1.054684     -0.499940
H      -2.257390     -0.893665      0.390065
H      -0.955352     -1.982517      0.882939
H      -1.193376     -1.606669     -0.831021
H      -0.296150      0.368850      1.341447
H       1.418142     -1.282820      0.411107
H       1.158402     -0.534776     -1.167063
H       1.785547      1.427482     -0.167276
H      -0.767115      2.619793     -1.543809
