14
Extracted from Q-Chem output
C      -1.194270     -1.114503      0.115679
C      -0.236082      0.030281      0.345477
C       1.175297     -0.298470     -0.136196
O       2.123330      0.649776      0.209061
C      -0.200062      1.727217     -0.617229
O      -1.362691      1.267638     -0.366231
H      -2.193504     -0.882483      0.472267
H      -0.813822     -1.977471      0.668759
H      -1.246993     -1.384212     -0.939355
H      -0.234188      0.441587      1.347763
H       1.417989     -1.232860      0.385139
H       1.162541     -0.524911     -1.212519
H       1.639129      1.500007      0.130735
H      -0.039538      1.802799     -1.734108
