13
Extracted from Q-Chem output
C      -0.564557      1.694963      0.157416
C      -0.233549      0.405990      0.126158
N      -1.186481     -0.619417      0.178879
O      -0.784353     -1.713184      0.971289
C       1.178359     -0.069676     -0.084007
O       1.282284     -1.072516     -1.077832
H       0.173207      2.458339     -0.046323
H      -2.076868     -0.310638      0.543562
H      -1.577253      2.019971      0.365628
H      -0.500732     -2.365488      0.323642
H       1.548606     -0.525383      0.835363
H       1.812863      0.792653     -0.312089
H       0.887923     -0.737038     -1.885923
