13
Extracted from Q-Chem output
C      -0.793665      1.573189      0.294277
C      -0.124182      0.360385     -0.004024
N      -1.095016     -0.535692     -0.025923
O      -0.755030     -1.832241      0.434232
C       1.318104      0.073747     -0.257141
O       1.579031     -1.070549     -1.023994
H      -0.498990      2.511935     -0.165294
H      -1.845514      0.459430      0.213503
H      -1.120046      1.658972      1.327215
H      -1.383778     -2.404414     -0.015051
H       1.826076      0.037857      0.717593
H       1.735064      0.931829     -0.790079
H       1.117395     -1.805873     -0.609552
