16
smiles: [C:1]([C:2](=[C:5]([H:15])[H:16])[C:6]#[N:7])([H:8])([H:9])[H:10].[C:3](=[C:4]([H:13])[H:14])([H:11])[H:12]
C        1.35912900       1.06500200       0.07483800
C        1.36606800      -0.11792200      -0.84986200
C       -1.67061500      -0.28133800       1.54364800
C       -2.74850700      -0.03341700       0.81971800
C        0.34667500      -0.49031400      -1.61624800
C        2.58578000      -0.88450500      -0.88478600
N        3.57056100      -1.47585600      -0.89077600
H        2.14034300       1.77519400      -0.20213700
H        1.55347500       0.75165700       1.10220600
H        0.39542500       1.57089200       0.03807000
H       -1.40828100       0.32929400       2.40014900
H       -1.00464700      -1.10409700       1.30986400
H       -3.01075700      -0.64408200      -0.03680300
H       -3.41480400       0.78914400       1.05334300
H        0.41066600      -1.35457800      -2.26389000
H       -0.58127300       0.06815500      -1.60855400
