16
Extracted from Q-Chem output
C       1.413484      1.317909      0.095796
C       0.839175      0.036445     -0.423099
C      -0.724619     -0.560259      0.887531
C      -2.006608     -0.426879      0.328063
C      -0.570353     -0.044024     -0.857863
C       1.607098     -1.130370     -0.480028
N       2.199871     -2.126549     -0.506396
H       2.486645      1.353102     -0.092168
H       1.281608      1.464515      1.180276
H       0.965361      2.184618     -0.400603
H      -0.368509      0.187470      1.586254
H      -0.301266     -1.549279      1.012356
H      -2.516312     -1.286932     -0.077622
H      -2.573448      0.481017      0.465488
H      -0.775850     -0.838164     -1.564667
H      -0.972474      0.918682     -1.156698
