13
Extracted from Q-Chem output
N       1.689311      0.688614      0.060695
C       0.382684      0.280517      0.518020
C      -0.223657     -0.999626     -0.020602
O       0.484274     -2.111440      0.178165
C      -1.435981     -0.887480     -0.638261
C      -1.617311      0.506636     -0.516186
N      -0.651222      1.200305      0.097192
H       1.768943      0.539921     -0.938217
H       2.399395      0.124732      0.507831
H      -0.043502     -2.825898     -0.203891
H       0.395830      0.226265      1.612187
H      -2.474373      1.071301     -0.876635
H      -0.605119      2.193976      0.233759
