10
Extracted from Q-Chem output
O      -0.574490     -0.966782      0.146762
C      -0.742013      0.230817      0.951359
C       0.397744      0.912791      0.187887
C       0.453916     -0.394725     -0.560992
N       1.148225     -0.854195     -1.489222
H       0.874869     -1.805330     -1.725660
H      -1.736794      0.653974      0.814756
H      -0.557938      0.018357      2.004041
H       1.293671      1.140356      0.761158
H       0.121508      1.766846     -0.426598
