14
Extracted from Q-Chem output
C      -2.026311      0.365253      0.127981
C      -0.779401     -0.431214     -0.109219
C       1.541216     -0.461857      1.207373
C       1.883848     -0.313638     -0.210574
C       0.479222      0.227629     -0.541387
O      -0.306262     -0.512785     -1.441481
H      -2.125635      0.596603      1.190049
H      -2.903176     -0.207855     -0.178036
H      -2.009701      1.297707     -0.437281
H       1.550020      0.561389      1.635008
H      -0.702531     -1.369955      0.429081
H       2.621157      0.441160     -0.494739
H       2.054299     -1.248957     -0.742459
H       0.439850      1.305026     -0.674393
