14
Extracted from Q-Chem output
C      -1.995735     -0.433130      0.101287
C      -1.636064      0.881020     -0.201865
O       0.298268      1.084581     -0.366493
C       0.991216      0.064696     -0.128986
O       0.509703     -1.103887     -0.033022
C       2.469561      0.231929      0.082294
H      -0.735739     -0.913680      0.030595
H      -2.305186     -0.648174      1.118512
H      -2.493454     -1.005015     -0.675465
H      -1.745529      1.263782     -1.207607
H      -1.607161      1.641772      0.566701
H       2.819983      1.152933     -0.378046
H       2.999253     -0.631793     -0.315623
H       2.656054      0.280547      1.157071
