9
Extracted from Q-Chem output
N       2.280125     -0.737700      0.187305
C       1.357596     -0.041372     -0.044561
C       0.741496      1.411015     -0.070304
C       0.006283     -0.484080     -0.606042
N      -1.071076     -0.285362      0.119797
N      -1.247239      0.796206      0.893883
N      -0.237916      1.573721      0.699157
H       0.035623     -1.323018     -1.284626
H      -1.864892     -0.909409      0.105392
