17
smiles: [C:1](=[C:2]1[C:3]([H:11])([H:12])[C@@:4]2([H:13])[C@@:5]3([H:14])[C@:6]1([H:16])[C@@:7]23[H:17])([H:8])[H:9].[H:10][H:15]
C        1.55777200      -1.52040700      -0.28329300
C        0.55790300      -0.65348600      -0.32114800
C       -0.91883400      -0.91045600      -0.08825100
C       -1.47485400       0.49498400      -0.28119000
C       -0.46628000       1.52011200       0.14443700
C        0.63003700       0.80774600      -0.60485500
C       -0.64475400       1.25478200      -1.27256600
H        1.39069600      -2.56868900      -0.06538700
H        2.57963800      -1.21172100      -0.47048300
H        0.92244400      -0.37675100       2.53549300
H       -1.11014500      -1.29698800       0.91542000
H       -1.32544700      -1.61915000      -0.81339500
H       -2.53190900       0.71049400      -0.18781700
H       -0.49089800       2.40540900       0.75472700
H        0.75357400      -0.22410300       3.24446900
H        1.56541600       1.30991200      -0.81606900
H       -0.85586900       1.86384200      -2.13357400
