17
Extracted from Q-Chem output
C       1.458930     -1.301993     -0.105382
C       0.348389     -0.444909     -0.138941
C      -1.092871     -0.889661      0.086560
C      -1.590788      0.456335     -0.405602
C      -0.725793      1.541708      0.156591
C       0.500746      0.843806      0.570145
C      -0.322577      0.839991     -1.103838
H       1.313495     -2.360131     -0.287279
H       2.430629     -0.914027     -0.392541
H       1.482593     -0.789389      1.511574
H      -1.332330     -1.177629      1.113274
H      -1.364642     -1.687361     -0.604837
H      -2.580062      0.700442     -0.765117
H      -0.973857      2.583127      0.263664
H       1.145903     -0.056999      1.921027
H       1.436573      1.388372      0.478991
H       0.004151      1.253852     -2.041772
