13
Extracted from Q-Chem output
C      -1.630410     -0.999991      0.507004
C      -1.145761      0.226688     -0.214702
N      -0.713830      1.427264      0.540946
C       0.244548      0.634440     -0.125947
C       1.501896      0.466797     -0.335783
C       2.771614      0.286703     -0.566258
H      -1.012411     -1.205414      1.383265
H      -2.667000     -0.874791      0.827677
H      -1.583138     -1.871386     -0.148140
H      -1.691848      0.488480     -1.116400
H      -0.706386      1.268120      1.544038
H       3.267801      0.782378     -1.393790
H       3.374326     -0.361695      0.060668
