13
Extracted from Q-Chem output
C      -1.565821     -0.869523      0.361648
C      -0.709832      0.161045     -0.316150
N      -0.199789      1.343299      0.435832
C       0.687910      0.310043      0.095648
C       1.734803     -0.404992      0.843714
C       2.276294      0.095643     -0.256478
H      -1.157427     -1.133129      1.337901
H      -2.584393     -0.496853      0.488672
H      -1.610695     -1.778130     -0.240851
H      -0.998270      0.424612     -1.329082
H      -0.415255      1.327515      1.428265
H       1.359103      0.581374     -1.024039
H       3.167514      0.532209     -0.687152
