16
Extracted from Q-Chem output
C       2.081947      0.168737      0.325975
C       0.602348      0.417073      0.161846
C      -0.105254     -0.527994     -0.818162
C      -1.598650     -0.473581     -0.598619
C      -1.383068      0.432731      1.338172
O      -0.065892      0.176401      1.399026
H       2.508249      0.861067      1.051880
H       2.598826      0.303965     -0.625501
H       2.257447     -0.850400      0.674466
H       0.410162      1.458820     -0.133314
H       0.146035     -0.252806     -1.845342
H       0.266282     -1.540686     -0.645762
H      -2.094032     -1.431280     -0.767266
H      -2.119289      0.311556     -1.139453
H      -1.967259     -0.464578      0.670110
H      -1.571361      1.382304      0.806489
