12
Extracted from Q-Chem output
N       2.470919     -1.244697      0.896823
C       1.722134     -0.669374      0.243805
C       0.724576      0.019595     -0.562368
C      -0.713815     -0.681541     -0.545495
N      -1.651399      0.222878     -0.911533
C      -1.112318      0.724164      0.275510
N       0.219142      1.246187      0.077714
H       1.074330      0.155354     -1.585615
H      -0.857093     -1.765014     -0.573083
H      -0.771627     -0.465499      0.882289
H      -1.782568      1.049177      1.067586
H       0.713120      1.462103      0.934526
