11
Extracted from Q-Chem output
O      -1.497560      1.598726      0.386512
C      -0.623033      0.597592      0.131707
C      -0.766255     -0.663742     -0.376780
C       0.542988     -1.232627     -0.399338
C       1.412917     -0.305307      0.089438
N       0.683576      0.818674      0.413859
H      -1.687498     -1.124678     -0.696153
H      -2.377637      1.306829      0.143948
H       0.803307     -2.221880     -0.740153
H       2.478678     -0.339926      0.238173
H       1.039586      1.673597      0.797998
