17
smiles: [C:1]([H:8])([H:9])([H:10])[H:12].[C:2]1([H:11])=[C:3]([H:13])[O:4][C:5]([C:6]([H:15])([H:16])[H:17])([H:14])[O:7]1
C        2.04057400       1.57020000      -0.77114100
C        0.57964900      -1.52813500       0.43681100
C       -0.12979500      -1.52903300       1.55051600
O       -1.44919500      -1.24975600       1.28083100
C       -1.47939600      -0.85836300      -0.09128600
C       -1.68247600       0.63308500      -0.22043800
O       -0.22275600      -1.24819200      -0.64463800
H        1.42112800       0.90792900      -1.37401600
H        3.09074000       1.38880600      -0.99505000
H        1.79414200       2.60588800      -1.00037900
H        1.62085200      -1.72120000       0.24764500
H        1.85636900       1.37850700       0.28489700
H        0.13852200      -1.72468100       2.57367900
H       -2.26803400      -1.42528300      -0.59367600
H       -0.87648700       1.16048800       0.29200400
H       -1.68194400       0.91663800      -1.27334500
H       -2.63572800       0.91845500       0.22535400
