17
Extracted from Q-Chem output
C       1.907639      0.868284     -0.476810
C       0.910773     -0.859883     -0.006987
C       0.598680     -0.697426      1.407453
O      -0.673822     -0.034141      1.304682
C      -1.278354     -0.478769      0.143434
C      -2.198667      0.551183     -0.444729
O      -0.165512     -0.748800     -0.780719
H       1.994286      0.561408     -1.515541
H       2.905027      1.059920     -0.071850
H       1.261354      1.742663     -0.399243
H       1.711844     -1.499866     -0.354632
H       1.515073      0.237970      0.671675
H       0.581789     -1.614332      1.996461
H      -1.771893     -1.451920      0.282360
H      -1.655723      1.481919     -0.608001
H      -2.609716      0.198643     -1.390529
H      -3.017996      0.736528      0.249749
