14
Extracted from Q-Chem output
C       0.781215     -0.981422     -0.718844
C       0.654379      0.709579      1.077757
O       1.076008      1.829273      1.186775
C      -0.016614      0.208749     -0.185849
O      -0.029162      1.237393     -1.141901
C      -1.451269     -0.194483      0.158788
H       0.816102     -1.800326      0.003005
H       1.800689     -0.678489     -0.961480
H       0.307708     -1.346012     -1.630940
H       0.738390     -0.018554      1.908046
H       0.384351      2.008084     -0.730116
H      -1.942469     -0.556332     -0.744951
H      -2.008523      0.666350      0.530580
H      -1.479433     -0.988027      0.908751
