19
smiles: [C:1](=[C:2]([H:11])[H:12])([H:8])[H:10].[C:3]([O:4][H:9])([C:5]([C:6]([O:7][H:19])([H:17])[H:18])([H:15])[H:16])([H:13])[H:14]
C        2.96098500      -0.99477700      -0.24479900
C        2.77419300      -0.12524200      -1.22272600
C       -0.43941700       0.15288400       1.17875400
O        0.75596600       0.83264000       1.51086000
C       -1.08575900       0.69059000      -0.08915300
C       -2.37919000      -0.01766000      -0.43566700
O       -3.30870200       0.21231600       0.60888300
H        3.68915700      -0.82053300       0.53918000
H        1.38311800       0.71653000       0.79502200
H        2.39532000      -1.91783600      -0.18880400
H        2.04627400      -0.29990400      -2.00684000
H        3.34012200       0.79761500      -1.27907600
H       -0.25994400      -0.92703600       1.07592800
H       -1.11149300       0.29244000       2.02466100
H       -0.39468000       0.57458600      -0.93209900
H       -1.27609000       1.76010700       0.03143200
H       -2.19421800      -1.09425200      -0.55843700
H       -2.76460200       0.36438900      -1.38896000
H       -4.12214400      -0.25268000       0.41120800
