13
Extracted from Q-Chem output
O       1.724160      0.610466      0.585049
C       0.740036      0.354996     -0.399282
C       0.218913     -1.087494     -0.336300
C      -1.057751     -0.904004      0.441126
N      -1.476387      0.285891      0.546764
C      -0.545147      1.165771     -0.165235
H       1.326235      0.507277      1.453384
H       1.217885      0.588953     -1.349530
H       0.934148     -1.764144      0.133861
H      -0.006819     -1.486539     -1.330459
H      -1.616602     -1.727552      0.880059
H      -0.352828      2.071734      0.412230
H      -1.013309      1.471759     -1.105516
