14
Extracted from Q-Chem output
C       1.224571     -0.254102      0.464275
N      -0.237257     -0.070077      0.245869
C      -0.613892      0.976518     -0.754175
C      -0.897827     -1.351266     -0.081566
C      -0.188793      2.239132     -0.314008
N       0.120718      3.268054      0.125879
H       1.658120     -0.610087     -0.468478
H       1.405161     -0.974740      1.263768
H       1.650287      0.713791      0.719268
H      -0.633892      0.257035      1.124239
H      -0.294357      0.672574     -1.745678
H      -1.966358     -1.169835     -0.154559
H      -0.525435     -1.688152     -1.047511
H      -0.670520     -2.096197      0.680634
