13
Extracted from Q-Chem output
N       2.552556     -1.211275      0.936480
C       1.676302     -0.510439      0.701597
C       0.587779      0.409925      0.394195
C       0.540751      1.003106     -1.040819
C      -0.772134      0.287118     -1.105940
C      -1.381656     -1.036185      0.921349
N      -0.702520     -0.254026      0.114033
H       0.482858      1.140231      1.196252
H       1.342812      0.643368     -1.690574
H       0.529708      2.096096     -1.059864
H      -1.567670      0.163216     -1.821134
H      -2.314991     -1.452410      0.579610
H      -0.952343     -1.272538      1.880217
