13
Extracted from Q-Chem output
N       2.431568     -1.210894      1.270488
C       1.664852     -0.418155      0.954133
C       0.685481      0.575310      0.519363
C       0.327587      0.620124     -0.986935
C      -1.086065      0.282834     -0.547663
C      -1.111881     -0.949440      0.244823
N      -0.730381      0.296171      0.915567
H       0.981897      1.546440      0.912836
H       0.819594     -0.097433     -1.642612
H       0.437052      1.621709     -1.395964
H      -1.984413      0.764571     -0.911513
H      -0.361135     -1.718143      0.087306
H      -2.074157     -1.313093      0.580171
