14
Extracted from Q-Chem output
C       1.489404      0.858696     -0.522059
N       0.749418     -0.366922     -0.807244
C      -0.003363     -0.942031      0.208655
N       0.143898     -2.154204      0.534061
C      -1.120054     -0.094573      0.816362
O      -1.509134     -0.286261      1.945578
N      -1.652215      0.823105     -0.024336
H       2.312488      0.695664      0.181405
H       0.824180      1.609959     -0.098177
H       1.895315      1.255227     -1.452292
H       1.338868     -1.080606     -1.214212
H      -0.546600     -2.404058      1.238708
H      -1.381021      0.833968     -0.991448
H      -2.468545      1.326898      0.273955
