16
Extracted from Q-Chem output
C      -0.881818      0.928088     -0.874091
C      -0.042328     -0.010867      0.002880
C      -0.504155      0.085995      1.463355
C      -0.185512     -1.456077     -0.494246
C       1.371714      0.387150     -0.081329
C       2.523538      0.709687     -0.152742
H      -0.783148      1.962776     -0.542375
H      -1.936146      0.646718     -0.818263
H      -0.565298      0.873995     -1.916845
H       0.090947     -0.566822      2.103591
H      -0.407375      1.106891      1.835880
H      -1.552204     -0.212401      1.543735
H      -1.231190     -1.767825     -0.437436
H       0.145352     -1.546717     -1.529942
H       0.411249     -2.136929      0.114432
H       3.546374      0.996337     -0.216605
