16
Extracted from Q-Chem output
C      -1.025664      0.841382     -0.899039
C      -0.010241     -0.105485     -0.276434
C       0.106553      0.071031      1.249664
C      -0.291574     -1.551599     -0.666243
C       1.434188      0.298122     -0.578015
C       1.683546      0.861863      0.618297
H      -0.851816      1.874373     -0.589202
H      -2.044247      0.560710     -0.614197
H      -0.948285      0.806593     -1.986633
H       0.525401     -0.778504      1.777032
H       0.709832      1.282454      1.209555
H      -0.709184      0.515931      1.836174
H      -1.275641     -1.875047     -0.315573
H      -0.258618     -1.646085     -1.752140
H       0.463350     -2.225406     -0.256255
H       2.529804      1.080382      1.257058
