16
Extracted from Q-Chem output
C       2.123957      0.209094      0.149109
C       0.854102     -0.207429     -0.588178
C      -0.276088     -0.262003      0.412266
O      -0.243899     -1.234788      1.333625
C      -1.191133      0.876616      0.503174
C      -1.847127     -0.269707     -0.304929
H       2.976983      0.214400     -0.529906
H       2.329663     -0.488377      0.960876
H       2.025709      1.209742      0.575678
H       0.983028     -1.202112     -1.018296
H       0.626568      0.492240     -1.396031
H      -1.159665     -1.312804      0.356591
H      -1.645405      1.050217      1.470462
H      -0.951141      1.773345     -0.055801
H      -2.737246     -0.646699      0.193394
H      -1.912070     -0.176680     -1.380396
