16
smiles: [C:1]([C@@:2]([O:3][H:16])([C:4](=[O:6])[H:12])[H:10])([H:7])([H:8])[H:9].[C:5]([H:11])([H:13])([H:14])[H:15]
C        2.35663600      -0.30950500      -0.32840600
C        0.88746900       0.01444900      -0.08546400
O        0.74763000       1.10867000       0.77101600
C        0.17807600       0.26811000      -1.39270000
C       -2.57448800      -0.29845900       1.08996800
O       -0.43271200       1.28101000      -1.60568300
H        2.85615700       0.53412800      -0.80723800
H        2.46738200      -1.19553900      -0.95731900
H        2.84559200      -0.50051900       0.62600300
H        0.40033600      -0.87276900       0.35222100
H       -1.68044500       0.11236700       1.55649500
H        0.24996800      -0.53222200      -2.15395600
H       -2.45069200      -1.37137700       0.95072300
H       -3.43593800      -0.11171300       1.72933100
H       -2.72915400       0.17748100       0.12277600
H        0.17076600       1.74174300       0.32320700
