16
Extracted from Q-Chem output
C       2.116467     -0.176602     -0.340908
C       0.713553     -0.315282      0.255474
O       0.454298      0.552272      1.275759
C      -0.314253      0.098471     -0.778544
C      -1.992939     -0.215275      0.578732
O      -0.387294      1.382560     -0.943507
H       2.300426      0.847085     -0.669532
H       2.274122     -0.857969     -1.180342
H       2.837290     -0.416035      0.439328
H       0.544801     -1.374299      0.510924
H      -0.889883      0.222541      1.036284
H      -0.615324     -0.485245     -1.645274
H      -2.152428     -1.016976      1.303714
H      -2.624880      0.648661      0.798440
H      -2.344330     -0.600703     -0.379847
H      -0.015677      1.708197     -0.071234
