16
smiles: [C:1](=[C:2]1[C@@:3]2([H:10])[C:4]([H:11])([H:12])[C@@:5]2([H:14])[C:6]1([H:15])[H:16])([H:7])[H:9].[H:8][H:13]
C        2.03694600       0.02903900      -0.48148700
C        0.72775700      -0.03735300      -0.32103900
C       -0.33040400       0.96955700      -0.02439100
C       -1.47549600       0.79833900      -0.98808400
C       -1.34325000      -0.16741500       0.13392000
C       -0.25687700      -1.19561200      -0.19220500
H        2.56084800       0.97697000      -0.44672500
H        0.98154300      -0.13408300       2.55179900
H        2.62843800      -0.86438800      -0.64329500
H       -0.21232000       1.87360500       0.55725500
H       -2.26250900       1.53507400      -0.88295600
H       -1.28244200       0.48530700      -2.00890400
H        0.62446400      -0.15322600       3.20489600
H       -2.10315000      -0.27941800       0.89432400
H       -0.42941200      -1.81440600      -1.07588000
H       -0.00399600      -1.83934400       0.65111300
