12
Extracted from Q-Chem output
C      -1.314538     -0.392109      0.757741
C       0.016568     -0.166079      1.376820
C       0.606577      1.196291     -0.629266
O      -0.213791      1.754064     -1.271062
C       1.486760      0.024827     -0.863651
O       1.589545     -0.750592      0.082487
H      -1.833052      0.535903      0.527389
H      -1.230613     -0.968173     -0.170646
H      -1.931434     -0.998082      1.430543
H       0.446162     -1.004919      1.903152
H       0.240831      0.798139      1.810412
H       2.185371     -0.018368     -1.705559
