17
smiles: [C-:1]([O+:2]=[C:3]1[C@@:4]2([H:12])[C:5]([H:13])([H:14])[C:6]([H:15])([H:16])[C@@:7]12[H:17])([H:8])[H:9].[H:10][H:11]
C        1.94808900       0.39240900       0.66299400
O        1.03369300      -0.48229200       0.80100000
C        0.26070700      -0.96888200      -0.18109100
C       -1.19240700      -1.00357500      -0.08559400
C       -1.75360100       0.26953000       0.56288500
C       -0.99195900       1.13543100      -0.47333800
C       -0.44779300      -0.13028700      -1.14784600
H        2.56531400       0.57066600       1.53006400
H        2.13912900       0.81935600      -0.31440700
H        2.80366000      -1.40551700      -0.78792500
H        2.11515500      -1.67023200      -0.88940200
H       -1.77015500      -1.90245200      -0.26372600
H       -2.83477700       0.36080700       0.45891500
H       -1.49570400       0.41653300       1.61422900
H       -1.65564900       1.70789600      -1.11966700
H       -0.24059400       1.82249300      -0.06597500
H       -0.40247200      -0.28220700      -2.21952600
