17
Extracted from Q-Chem output
C       2.083739      0.290278      0.617603
O       1.053308     -0.432260      0.852453
C       0.285237     -0.908112     -0.140773
C      -1.167368     -0.998834     -0.087846
C      -1.788952      0.252948      0.543308
C      -1.034660      1.145216     -0.477335
C      -0.428865     -0.102409     -1.132147
H       2.739174      0.459667      1.458330
H       2.174033      0.809284     -0.327634
H       2.664825     -1.313708     -0.694247
H       1.946475     -1.608130     -0.832748
H      -1.698043     -1.926633     -0.262198
H      -2.869239      0.302844      0.407995
H      -1.564787      0.408864      1.600403
H      -1.708795      1.686101     -1.140001
H      -0.318042      1.861642     -0.063316
H      -0.331656     -0.253081     -2.200319
