11
smiles: [C:4]([O:5][H:11])[H:10].[O:1]([C:2](=[C:3]([H:8])[H:9])[H:7])[H:6]
O        0.28033700       0.40637500       0.85716100
C        0.82760100      -0.47964200      -0.00657600
C        2.03366900      -1.02311700       0.07132600
C       -2.32794900       0.53367500      -1.00313300
O       -2.21076400       1.23934000       0.08610600
H        0.90633600       0.59459500       1.56159300
H        0.13673400      -0.70816100      -0.80978400
H        2.72179400      -0.79140900       0.87690900
H        2.35755900      -1.72300000      -0.68459700
H       -3.33330700       0.83208100      -1.37820600
H       -1.35579100       1.04634000       0.49079900
