17
smiles: [C:1]([C:2](=[C:3]([H:12])[H:13])[H:11])([H:8])([H:9])[H:10].[C:4](=[C:5]([H:15])[H:16])([C:6](=[O:7])[H:17])[H:14]
C       -2.18617200      -0.04611300       0.10307200
C       -1.14900500       0.99687800       0.37298000
C       -0.64610600       1.27776400       1.56499500
C        1.64346500      -0.67700800      -1.28943000
C        1.11494600      -1.81047200      -0.84728200
C        2.13643900       0.34254500      -0.34460800
O        2.62895100       1.38843200      -0.67500200
H       -3.07991800       0.39906900      -0.34190600
H       -2.48066600      -0.56191300       1.01806600
H       -1.81653300      -0.79026300      -0.60719700
H       -0.79529200       1.55628200      -0.49020700
H        0.10434600       2.04740200       1.69836000
H       -0.96899200       0.74665500       2.45480300
H        1.74040500      -0.44970900      -2.34550100
H        0.74846100      -2.57641300      -1.51914700
H        1.03211000      -2.00856400       0.21707400
H        2.02124500       0.07785400       0.72803900
