17
Extracted from Q-Chem output
C      -2.066563     -0.200057     -0.084694
C      -1.261132      1.005327     -0.193488
C      -0.061519      1.143808      0.570793
C       0.751567      0.179764     -0.385915
C       0.703822     -1.248580     -0.227224
C       2.179584     -0.235172      0.134717
O       3.167409     -0.194426     -0.576040
H      -2.367307     -0.427749      0.941055
H      -1.388001     -1.065027     -0.361504
H      -2.935132     -0.210728     -0.739480
H      -1.416743      1.679123     -1.028311
H       0.402651      2.126024      0.567071
H      -0.075649      0.710596      1.570726
H       0.859342      0.543030     -1.401691
H       0.786941     -1.906177     -1.080230
H       0.528115     -1.689683      0.744534
H       2.229968     -0.230615      1.236364
