16
Extracted from Q-Chem output
C      -1.069184      1.496619     -0.248503
C      -0.226463      0.332449      0.251187
C      -0.974469     -0.998300      0.158763
O      -0.433058     -2.011270      0.956831
N       1.046013      0.278704     -0.484877
C       2.413971     -0.498994     -0.103345
O       2.358189     -1.385907      0.678826
H      -0.499454      2.426201     -0.228447
H      -1.954887      1.624445      0.374732
H      -1.404253      1.323655     -1.275348
H       0.037948      0.486868      1.301735
H      -1.999751     -0.844351      0.504222
H      -1.030677     -1.297861     -0.900288
H       0.530748     -2.013772      0.869125
H       0.962375      0.324769     -1.498184
H       2.242953      0.756744     -0.356428
