13
Extracted from Q-Chem output
C       1.352544     -0.712155     -0.216926
C      -0.039103     -0.197827     -0.429792
C      -0.352302      1.238884      0.016187
N      -0.212667      0.913211     -1.353076
C      -1.092358     -0.702349      0.391911
O      -2.093589     -1.269788      0.535301
H       1.530178     -1.610712     -0.809162
H       2.058112      0.060629     -0.517023
H       1.515704     -0.952777      0.834951
H      -1.393134      1.433342      0.318815
H       0.070699      0.898434      1.364237
H      -1.053815      0.987898     -1.914336
H      -0.341182      0.088474      1.792634
