16
Extracted from Q-Chem output
C       2.088835      0.348019      0.256439
C       0.987785     -0.584386     -0.245067
C      -0.404042     -0.024877     -0.050597
C      -1.248730     -0.603946      0.755450
C      -2.089551     -1.193804      1.555376
C      -0.778277      1.217385     -0.816639
H       2.092906      1.297199     -0.282609
H       1.956840      0.564858      1.318385
H       3.071104     -0.108984      0.124112
H       1.137105     -0.780726     -1.312826
H       1.057395     -1.545817      0.265921
H      -2.148814     -0.928474      2.605339
H      -2.758705     -1.968432      1.196960
H      -0.624992      1.062848     -1.888463
H      -0.156998      2.065296     -0.517925
H      -1.820521      1.484602     -0.650370
