10
Extracted from Q-Chem output
N       1.945609     -0.097863     -1.500911
C       1.135544     -0.081965     -0.668042
C       0.615329     -0.337068      0.957810
N      -0.373827     -1.348617      0.947592
C      -1.082265     -0.870609     -0.009529
C      -0.448144      0.452046     -0.272023
N      -0.113042      0.876508      1.108184
H      -1.905335     -1.360037     -0.515768
H      -0.676782      1.218796     -1.001549
H       0.517398      1.675269      1.051439
