11
Extracted from Q-Chem output
N      -1.890974     -0.484267      0.024029
C      -0.648957      0.050153     -0.088202
N       0.484598     -0.747157     -0.554775
N       1.347625     -0.792194      0.671462
C       1.285521      0.399855     -0.148529
C       0.041787      1.164588      0.198332
H      -2.654689      0.147319      0.186281
H      -2.093232     -1.253439     -0.590614
H       2.146551     -1.352400      0.366681
H       2.135259      0.722115     -0.738875
H      -0.159762      2.109033      0.674959
