12
Extracted from Q-Chem output
C      -1.349342      1.041847      0.502895
C      -1.113326     -0.257903      0.451892
O       0.147720     -1.812589     -0.883457
C       0.225847     -0.910233      0.208629
C       1.323150      0.051984      0.036930
C       2.219504      0.827904     -0.128237
H      -0.037185     -1.299942     -1.674896
H      -0.553105      1.767830      0.383379
H      -2.350021      1.420474      0.670644
H      -1.921276     -0.973702      0.571692
H       0.464400     -1.542537      1.069033
H       3.022214      1.511923     -0.273247
