12
Extracted from Q-Chem output
C      -1.295082      0.850014      0.269057
C      -0.922269     -0.444988      0.634906
O      -0.435757     -1.102451     -1.111653
C       0.333234     -0.976330      0.058221
C       1.492048     -0.084185     -0.006433
C       2.449868      0.631129     -0.062467
H      -1.053141      0.144482     -0.855046
H      -0.531125      1.620340      0.256239
H      -2.320774      1.162776      0.404590
H      -1.626162     -1.182999      0.999648
H       0.635283     -1.948416      0.455973
H       3.304528      1.263386     -0.118552
