9
Extracted from Q-Chem output
N      -1.328511      0.892842     -0.383762
C       1.310880      0.437539      0.187376
C       1.343932     -0.790535     -0.130740
N       0.227895     -0.402019      0.779465
C      -1.032724     -0.193060      0.185138
H      -2.298282      0.899597     -0.684580
H       1.649298      1.452968      0.246300
H       1.731524     -1.692591     -0.564130
H      -1.718232     -1.030979      0.342625
