9
Extracted from Q-Chem output
N      -1.102636      0.934155     -0.197251
C       1.322043      0.533443      0.064771
C       1.350389     -0.729489     -0.032621
N       0.055883     -0.975864      0.465376
C      -1.050694     -0.311495      0.108110
H      -2.026296      1.200325     -0.526549
H       1.264219      1.583031      0.237924
H       2.046936     -1.517097     -0.282219
H      -1.939987     -0.946958      0.155879
