14
Extracted from Q-Chem output
O       1.830642     -0.229503      1.041731
C       1.012576     -0.254069     -0.069846
C      -0.624915      1.628491     -0.212976
N      -0.352587      0.244590      0.091725
C      -0.943738     -0.807462     -0.745278
C       0.373991     -1.560717     -0.584579
O       0.733672     -2.685335     -0.713452
H       1.361201     -0.650084      1.767929
H       1.570960      0.247846     -0.874633
H      -0.010684      2.264328      0.425316
H      -0.411636      1.876362     -1.265166
H      -1.671988      1.857816     -0.010638
H      -1.111552     -0.516970     -1.792929
H      -1.845081     -1.277039     -0.348364
