17
Extracted from Q-Chem output
C       1.914214      0.506711     -0.223645
C       0.422555      0.240994     -0.042300
C       0.060375     -1.228460     -0.200744
C      -1.427244     -1.516065     -0.051793
C      -0.346636      1.227996     -0.876900
C      -0.767128      1.746621      0.447646
O      -0.037011      0.798231      1.226983
H       2.450447      0.005505      0.583716
H       2.254687      0.124977     -1.185551
H       2.138753      1.573132     -0.171345
H       0.414897     -1.551746     -1.182304
H       0.629828     -1.783844      0.550888
H      -1.794977     -1.164375      0.913403
H      -1.621219     -2.587408     -0.114305
H      -2.004545     -1.028571     -0.841222
H      -1.859202      1.632056      0.543981
H      -0.524384      2.794875      0.656802
