10
Extracted from Q-Chem output
O       1.122365     -0.677736      0.981775
C       1.046317      0.200639     -0.120782
C       0.276225     -1.031599     -0.091696
C      -1.052718     -0.198553      0.034078
O      -0.952046      0.622928      1.177836
C      -0.282705      1.033877      0.004726
H       1.953495      0.471190     -0.642207
H       0.418949     -1.983342     -0.583593
H      -2.031790     -0.446136     -0.350865
H      -0.498091      2.008733     -0.409274
