10
Extracted from Q-Chem output
O       1.176561     -0.804186      0.870629
C       1.727904      0.405346      0.468126
C       0.176125     -0.657848     -0.071447
C      -1.221746     -0.339032      0.282771
O      -1.035138      0.788651      1.112898
C      -0.454214      0.776822     -0.182800
H       2.070498      0.232062     -0.587757
H       0.335523     -1.174906     -1.016179
H      -2.173199     -0.744389     -0.016814
H      -0.623212      1.510559     -0.952172
