14
Extracted from Q-Chem output
C      -1.189909      0.642267     -0.950417
C      -1.182499     -0.220639      0.147240
C       0.677064     -0.666091      0.940385
O       0.837974     -2.021190      0.768090
C       1.459441      0.235360      0.263181
C       1.417929      1.087958     -0.663859
H       0.193007      1.043652     -1.040801
H      -1.610530      1.635644     -0.835976
H      -1.281850      0.223416     -1.947399
H      -1.332804     -1.280767     -0.016763
H      -1.592001      0.148974      1.080252
H       0.420427     -0.457075      1.972651
H       1.210729     -2.176032     -0.104025
H       2.058377      1.806810     -1.143569
