11
Extracted from Q-Chem output
N       1.715952     -1.069948     -0.542762
C       0.739637     -0.301023     -0.333126
C      -0.485996     -0.820702      0.416358
O      -1.549814      0.015115     -0.041383
C      -1.238202      1.276349      0.138642
O       0.684170      1.001793     -0.646262
H       2.471739     -0.577966     -1.012720
H      -0.712804     -1.852704      0.168532
H      -0.336355     -0.699847      1.495590
H      -0.354060      1.539049     -0.799620
H      -0.846271      1.455438      1.157381
