19
smiles: [C:1]([C:2]([C:3]([C:4]1=[C:7]([H:18])[O:6][C:5]1([H:16])[H:17])([H:13])[H:14])([H:11])[H:12])([H:8])([H:9])[H:10].[H:15][H:19]
C        3.06172100       0.35285600       0.38434000
C        1.59683200      -0.04426100       0.50064900
C        0.67093600       0.89237600      -0.27928200
C       -0.76437400       0.53880800      -0.16204400
C       -1.61127000      -0.65671200      -0.53044500
O       -2.76297100       0.04459500       0.02761700
C       -1.88610100       1.07416700       0.31485000
H        3.39491700       0.33469500      -0.65639100
H        3.22469900       1.36446100       0.76458600
H        3.70469700      -0.32193100       0.95171000
H        1.29135200      -0.04983600       1.55098400
H        1.46154400      -1.06840100       0.13804600
H        0.97040400       0.88967400      -1.33421200
H        0.80844300       1.91898400       0.07378100
H       -3.95457600      -2.82457000       1.29907500
H       -1.43124600      -1.58563300       0.01301000
H       -1.76119000      -0.85057400      -1.59387200
H       -2.22882000       1.98078500       0.79597500
H       -3.81753800      -2.10957500       1.14261500
