19
Extracted from Q-Chem output
C       2.885730      0.198394      0.418544
C       1.502237     -0.432426      0.351278
C       0.381039      0.599547      0.247283
C      -0.975121     -0.019719      0.168238
C      -1.639312     -0.781409     -0.966322
O      -2.892793     -0.059090     -0.666694
C      -2.276151      0.573501      0.328794
H       3.091597      0.797120     -0.472392
H       2.973817      0.857996      1.285627
H       3.667553     -0.558804      0.498355
H       1.325471     -1.054768      1.233110
H       1.447631     -1.106471     -0.510743
H       0.580342      1.251364     -0.618141
H       0.416932      1.253144      1.126078
H      -1.830607     -0.386893      1.287621
H      -1.811456     -1.856556     -0.847024
H      -1.317102     -0.561174     -1.987822
H      -2.666959      1.500691      0.733142
H      -2.855172     -0.243947      1.720738
