17
smiles: [C:1]([C:2]([C:3](=[O:5])[C:6]#[C:7][H:17])([H:11])[H:12])([H:8])([H:9])[H:10].[C:4]([H:13])([H:14])([H:15])[H:16]
C        2.45156700       0.35966500      -0.02874700
C        1.16376900      -0.46000900       0.04629900
C        0.20523400       0.08117000       1.07842900
C       -2.39004800      -1.35245600      -0.85568600
O       -0.12886000      -0.52685300       2.06293200
C       -0.30940700       1.42872900       0.82318100
C       -0.72665500       2.52817100       0.59429900
H        3.11642900      -0.04949000      -0.78957700
H        2.97983800       0.34342100       0.92581800
H        2.24458700       1.39974800      -0.28550300
H        1.36868200      -1.49780500       0.30998800
H        0.65757900      -0.44290100      -0.92374900
H       -3.43389900      -1.56924800      -1.07784900
H       -2.18961400      -0.29922800      -1.04642700
H       -1.74957600      -1.96454900      -1.48883900
H       -2.18750000      -1.57680600       0.19051000
H       -1.10748000       3.50532200       0.40702600
