17
Extracted from Q-Chem output
C       2.194194      0.130122      0.249662
C       0.944899     -0.399650     -0.447098
C      -0.260019     -0.138940      0.440786
C      -1.710928     -0.991533     -0.576551
O      -0.294821     -0.761013      1.612383
C      -0.740538      1.248695      0.408427
C      -1.105803      2.388706      0.411758
H       3.080379     -0.104872     -0.340379
H       2.297052     -0.325717      1.234094
H       2.146896      1.213446      0.374957
H       1.024222     -1.479635     -0.584664
H       0.814903      0.071044     -1.423680
H      -2.717845     -0.783519     -0.209733
H      -1.525175     -0.395650     -1.463112
H      -1.555448     -2.048690     -0.805628
H      -1.176712     -1.085704      0.662251
H      -1.432820      3.401961      0.430836
