8
Extracted from Q-Chem output
O       0.633083      1.161857      0.168447
C      -0.730126      0.986650      0.371444
C      -0.844830     -0.414996      0.148313
N       0.398162     -1.035269     -0.070114
C       1.199592     -0.043299     -0.025988
H      -1.194128      0.393313     -0.760542
H      -1.743630     -0.996363      0.303096
H       2.274911     -0.068672     -0.135449
