12
Extracted from Q-Chem output
O      -1.156102      2.121448      0.297536
C      -0.461507      0.987226      0.126635
C      -0.909030     -0.259256      0.074055
C       0.056574     -1.393692     -0.127068
N       1.439970     -0.955323     -0.224412
C       1.711439      0.261733     -0.156171
O       0.851001      1.315676      0.009031
H      -1.967780     -0.459037      0.179445
H      -2.088222      1.905580      0.377502
H      -0.175356     -1.958501     -1.036205
H      -0.004718     -2.116116      0.693427
H       2.729127      0.631031     -0.226751
