12
Extracted from Q-Chem output
O      -1.238506      2.079612      0.069650
C      -0.389933      1.139962      0.094785
C      -0.982340     -0.137152      0.220406
C      -0.108625     -1.268542     -0.271885
N       1.317995     -0.960071     -0.114119
C       1.700471      0.217926     -0.035220
O       0.890163      1.376275     -0.095734
H      -1.426393     -0.262462      1.206707
H      -1.917012      1.023764     -0.076502
H      -0.259560     -1.487852     -1.333277
H      -0.304264     -2.196708      0.263614
H       2.735814      0.518475      0.066356
