19
smiles: [C:1]([H:8])([H:9])([H:10])[H:15].[C:2](=[C:3]([C@:4]([C:5]([H:16])([H:17])[H:18])([C:6](=[O:7])[H:19])[H:14])[H:13])([H:11])[H:12]
C       -0.76560000      -2.59336100       1.06048600
C       -1.88507700       0.79481500      -0.74128100
C       -0.73621100       1.30196300      -0.32289900
C        0.59079900       0.59241400      -0.37395300
C        1.35119800       0.66418500       0.94180800
C        1.39006500       1.16887800      -1.53004100
O        2.47209800       1.67465900      -1.43118500
H       -0.88674400      -2.98531900       0.05172700
H        0.29441300      -2.46662800       1.27535400
H       -1.20028300      -3.29042500       1.77534200
H       -1.94887400      -0.21110700      -1.14352200
H       -2.80557000       1.36340700      -0.69336000
H       -0.71040300       2.31302400       0.07836100
H        0.39919700      -0.45250100      -0.65057600
H       -1.26926100      -1.63110300       1.13857100
H        2.31246400       0.15611600       0.86487900
H        0.77219500       0.20231400       1.74222700
H        1.55255900       1.70136900       1.21425500
H        0.88231500       1.09744900      -2.51494600
