19
Extracted from Q-Chem output
C      -1.098475     -1.896193      0.711049
C      -1.537259      0.124775     -0.626046
C      -0.348999      0.775720     -0.123607
C       0.842942     -0.090137      0.027384
C       1.991977      0.366562      0.873445
C       0.083822      1.690901     -1.284326
O       0.275858      2.868761     -1.169592
H      -1.588871     -2.410574     -0.109145
H      -0.458019     -2.617089      1.228907
H      -1.834534     -1.522186      1.415975
H      -1.466915     -0.427962     -1.557190
H      -2.515402      0.533471     -0.399939
H      -0.529099      1.395469      0.753313
H       1.134380     -0.605433     -0.891209
H      -0.110620     -1.125367      0.474338
H       2.706168     -0.446520      1.013530
H       1.654439      0.698220      1.857118
H       2.537719      1.198868      0.413783
H       0.223694      1.154335     -2.241019
