13
Extracted from Q-Chem output
C      -0.861617     -0.247065      1.805931
C      -0.442502     -0.973276      0.782893
O      -0.631758      1.354991     -2.566687
C      -0.307453      1.154848     -1.429067
C       0.876956      0.320297     -1.071453
O       1.439807      0.544709      0.211787
C       0.790093     -0.685155      0.007755
H      -1.757026     -0.513800      2.352376
H      -0.317622      0.633664      2.126585
H      -0.982466     -1.864125      0.475651
H      -0.866337      1.576561     -0.573248
H       1.582530      0.157950     -1.881505
H       1.466095     -1.532458     -0.101481
