12
Extracted from Q-Chem output
C      -1.385018     -0.474709     -0.378122
C       0.079921     -0.175652     -0.588261
C       0.731727      1.026556      0.049705
O       0.580616      1.342551      1.344143
C       1.102989     -0.578129      0.387222
O       0.660986     -0.381375      1.629450
H      -1.608698     -1.483438     -0.731474
H      -1.640667     -0.415382      0.678101
H      -2.010075      0.229250     -0.929365
H       0.419285     -0.236228     -1.619693
H       1.005484      1.864250     -0.588933
H       2.070917     -1.039280      0.230153
