11
Extracted from Q-Chem output
O      -1.549957      1.726469     -0.038777
C      -0.422956      1.157833      0.085744
C      -0.944948     -0.186302     -0.197229
C       0.428862     -1.617832     -0.151303
C       1.459193     -1.031011      0.121156
N       0.788061      1.459056      0.348471
H      -1.250116     -0.372561     -1.220346
H      -1.574222     -0.622926      0.569590
H      -0.132095     -2.499542     -0.380762
H       2.315693     -0.444076      0.361043
H       0.891599      2.455366      0.508087
