15
Extracted from Q-Chem output
C       0.718407      1.196295      0.289753
C       1.257517     -0.120055     -0.199214
C       0.304149     -1.225369      0.149672
O      -0.657091     -1.007605      1.129962
C      -1.470121      0.099567      0.700627
C      -0.741998      1.055183     -0.169777
C       0.172241     -0.551988     -1.167249
H       0.775796      1.304444      1.377403
H       1.206526      2.054328     -0.173673
H       2.311284     -0.315644     -0.358665
H       0.669561     -2.244460      0.144403
H      -1.765060      0.661411      1.593902
H      -2.373457     -0.287651      0.220930
H      -0.596361      0.377975     -1.344126
H       0.257888     -1.041041     -2.129761
