17
Extracted from Q-Chem output
C       1.836278     -0.610461     -0.049753
C       0.731454      0.283346      0.475025
C      -0.031217      1.212367     -0.511588
C      -1.378758      0.753824      0.108183
O      -2.239962     -0.015375     -0.684655
C      -1.560317     -1.243947     -0.684292
C      -0.608788     -0.311083      0.914431
H       2.175217     -1.309866      0.717300
H       2.694872     -0.013875     -0.363958
H       1.500777     -1.193364     -0.910213
H       1.118407      0.869287      1.315534
H       0.179756      2.276498     -0.419627
H       0.067706      0.926926     -1.559170
H      -1.939291      1.527637      0.634213
H      -0.642863     -1.139863     -1.291944
H      -1.088495     -1.425349      0.502649
H      -0.805161     -0.528586      1.966461
