11
Extracted from Q-Chem output
C      -1.366770      0.509272     -0.529883
C      -0.113832     -0.193377     -0.769751
C       0.626337     -0.247744      0.524453
O       0.024404     -0.324468      1.689088
C       2.036322     -0.086601      0.586183
N       3.185816     -0.015438      0.555227
H      -0.938512     -0.310908      1.473056
H      -2.322965      0.019789     -0.642197
H      -1.341116      1.549999     -0.239195
H       0.567129      0.326158     -1.460755
H      -0.230697     -1.211097     -1.162982
