13
Extracted from Q-Chem output
C      -2.033030      1.175463      0.436380
N      -1.295795      0.105742      0.522944
C      -0.592678     -0.621826     -0.528367
C       0.905725     -0.582439     -0.351354
C       1.595663      0.506622      0.327552
O       1.378171     -0.744404      0.973139
H      -0.921334     -1.665393     -0.524721
H      -2.061126      1.447664     -0.639393
H      -1.141221     -0.281083      1.446332
H      -0.870458     -0.181796     -1.487473
H       1.456310     -1.152526     -1.097547
H       2.630384      0.718883      0.077388
H       1.024139      1.337677      0.729270
