17
smiles: [C:1]([O:2][C@@:4]([O:5][H:14])([C:6]([O:7][H:17])([H:15])[H:16])[H:13])([H:8])([H:9])[H:10].[C:3]([H:11])[H:12]
C        1.30673600       0.82223100      -0.34712200
O        0.81554800      -0.49620400      -0.17476800
C        0.69420300      -1.33986400      -1.58125700
C       -0.39290600      -0.63839300       0.50597500
O       -0.28057600      -0.27359900       1.86293000
C       -1.57282100       0.15978000      -0.04213700
O       -1.54596600       1.51988900       0.31546200
H        1.37094000       1.35380000       0.60553200
H        0.67869300       1.40217400      -1.02704300
H        2.30439000       0.72071300      -0.77134700
H        0.52842200      -0.54568600      -2.33871500
H        1.77245900      -1.56690000      -1.71492900
H       -0.61943300      -1.70653100       0.41249400
H        0.44217300      -0.77166900       2.25046000
H       -2.49247200      -0.32103100       0.31480900
H       -1.56258400       0.10328400      -1.13193500
H       -1.36302900       1.55871800       1.25881300
