17
Extracted from Q-Chem output
C       1.750030      0.853255     -0.195512
O       1.107733     -0.390966      0.005813
C       0.586649     -1.077108     -1.213698
C      -0.614177     -0.708978      0.547946
O      -0.488676     -0.005075      1.719311
C      -1.780460     -0.104969     -0.199694
O      -1.556811      1.238219     -0.552306
H       2.039326      1.262375      0.775019
H       1.089383      1.550035     -0.715889
H       2.639750      0.669956     -0.807030
H       0.347961     -0.295057     -1.941724
H       1.398921     -1.699733     -1.605338
H      -0.594605     -1.782520      0.657459
H       0.190517     -0.410514      2.263857
H      -2.647864     -0.187820      0.473783
H      -1.967356     -0.664768     -1.107163
H      -1.447585      1.741262      0.258327
