14
Extracted from Q-Chem output
C      -1.722614     -0.375226      0.534497
C      -0.551766     -0.028036     -0.379975
C      -0.490753      1.392159     -0.715071
N      -0.356656      2.505913     -0.960646
C       0.808261     -0.449961      0.258640
O       0.939057     -1.731875      0.468220
C       2.015367      0.078216     -0.312491
H      -1.685466      0.212397      1.452758
H      -2.672776     -0.180377      0.038349
H      -1.661147     -1.431487      0.790332
H      -0.632857     -0.591860     -1.312893
H       2.929093     -0.272121      0.153090
H       0.866006      0.240961      1.196600
H       2.088697      0.707868     -1.198477
