13
Extracted from Q-Chem output
C       0.571420     -1.059941      0.245486
C      -0.754307     -1.230740     -0.429506
O      -1.494443     -0.115179     -0.689301
C      -1.265088      1.036782     -0.199401
N      -0.165288      1.223455      0.577285
C       1.002882      0.410512      0.245679
H       0.556921     -1.400136      1.286438
H       1.335378     -1.658124     -0.263927
H      -0.899744     -1.945084     -1.225761
H       0.003165      2.169001      0.871792
H      -2.000974      1.805482     -0.374021
H       1.771945      0.601160      0.993192
H       1.404424      0.683942     -0.735488
