13
Extracted from Q-Chem output
C      -2.169047      0.434088      0.212660
O      -0.759774      0.213904      0.311577
C      -0.203165     -0.400541     -0.723336
O      -0.787162     -0.770794     -1.703911
C       1.293594     -0.575413     -0.585123
C       2.475001      0.740825      0.906263
O       1.766888     -0.329166      0.739179
H      -2.694526     -0.515328      0.114723
H      -2.453383      0.934715      1.133794
H      -2.395182      1.060434     -0.649621
H       1.790796      0.114458     -1.270055
H       1.541008     -1.604131     -0.842722
H       2.702882      0.710258      1.995056
