17
smiles: [C:1](/[C:2](=[C:4]1\[C:5]([H:14])([H:15])[C:6]([H:16])([H:17])[O:7]1)[H:11])([H:8])([H:9])[H:10].[O:3]([H:12])[H:13]
C       -2.06916900      -0.24817300      -1.28041200
C       -1.13534900       0.66305700      -0.54638600
O        0.06468200       0.05674500       2.85579300
C        0.13534800       0.37827700      -0.32810800
C        1.09685600      -0.74362000      -0.62561700
C        2.09282500       0.14897400       0.12744200
O        1.06964700       1.14642200       0.33774500
H       -2.91293100      -0.54616800      -0.65196700
H       -2.48693500       0.23497400      -2.16776900
H       -1.56329500      -1.15844300      -1.60805700
H       -1.51430900       1.60685000      -0.16792800
H        0.40333500       0.71079700       2.24335900
H       -0.76321300      -0.24183600       2.47728600
H        0.86381600      -1.69523300      -0.15009200
H        1.31275600      -0.90425100      -1.68089900
H        2.91905800       0.54986900      -0.46136500
H        2.46344200      -0.24194400       1.07620400
