18
Extracted from Q-Chem output
C      -1.835788     -0.760343     -0.681392
C      -1.306437      0.421137      0.117910
C       0.207890      0.601719      0.013130
C       0.669840      1.850711      0.752245
N       0.877736     -0.557169      0.578692
C       1.626794     -1.237543     -0.159917
O       2.286776     -2.321236      0.275637
H      -1.581801     -0.665317     -1.740927
H      -1.415198     -1.700004     -0.319408
H      -2.922258     -0.831219     -0.606928
H      -1.783125      1.344507     -0.224870
H      -1.563480      0.303727      1.175164
H       0.463530      0.710346     -1.054296
H       0.179692      2.740846      0.352776
H       0.432025      1.768811      1.814820
H       1.749113      1.980800      0.656995
H       2.060608     -2.428924      1.208077
H       1.832501     -1.044623     -1.215849
