18
Extracted from Q-Chem output
C      -1.821448     -0.753096     -0.700936
C      -1.262787      0.352466      0.181969
C       0.239298      0.579414      0.005429
C       0.724135      1.783046      0.803195
N       0.980389     -0.600018      0.405531
C       1.707465     -1.398591     -0.302789
O       2.177424     -2.318524      0.453053
H      -1.654051     -0.534638     -1.759263
H      -1.351747     -1.713102     -0.479199
H      -2.896330     -0.868609     -0.553636
H      -1.777124      1.294103     -0.031640
H      -1.452978      0.124560      1.235720
H       0.436543      0.757344     -1.060327
H       0.189340      2.686670      0.505279
H       0.556952      1.620000      1.870129
H       1.791609      1.945303      0.648881
H       1.451185     -1.544659      1.226648
H       1.915022     -1.338539     -1.370510
