14
Extracted from Q-Chem output
C      -1.676562     -0.746421     -0.692147
C      -0.740128      0.933741      1.345390
C       0.063971      0.189548      0.586701
O      -0.301144     -0.662530     -0.388872
O       1.395754      0.200767      0.766790
C       2.216013     -0.011487     -0.372373
H      -2.070341      0.230022     -0.987766
H      -1.765083     -1.444735     -1.521200
H      -2.242654     -1.121945      0.164584
H      -0.297869      1.594590      2.073801
H      -1.813688      0.870069      1.278843
H       3.235991      0.159338     -0.035017
H       2.121020     -1.028440     -0.753938
H       1.972708      0.698083     -1.167553
