11
Extracted from Q-Chem output
N       1.772491     -0.596270     -0.389515
C       0.577832     -0.126764     -0.555417
C       0.317334      0.870041      0.468756
N      -0.884164      0.697336      1.095510
C      -1.676855     -0.177720      0.554010
N      -1.553743     -0.666731     -0.734315
N      -0.434782     -0.570804     -1.342507
H       1.606494      0.289962      0.673750
H       2.217331     -1.168978     -1.104031
H       0.667045      1.895408      0.361604
H      -2.617522     -0.417381      1.033548
