11
smiles: [C:4](#[C:5][H:11])[H:6].[O:1]=[C:2]([C:3]([H:8])([H:9])[H:10])[H:7]
O       -0.87612300      -1.45200100       0.40018700
C       -1.56088000      -0.80712000      -0.34466400
C       -1.22649200       0.57000000      -0.83227600
C        2.04697200      -0.19302200       1.04715000
C        3.04372200       0.46490200       1.07423000
H        1.15803400      -0.77877200       1.02255100
H       -2.51788600      -1.22434700      -0.72426300
H       -2.02927000       1.25907800      -0.55738600
H       -1.17451800       0.56443700      -1.92435500
H       -0.28102600       0.91046500      -0.41458500
H        3.93226600       1.05136400       1.09573100
