15
smiles: [C:1]([O:2][C:5]([H:10])([H:11])[H:12])([H:7])([H:8])[H:9].[C:3](#[N:4])[C:6]([H:13])([H:14])[H:15]
C        1.39664800      -0.83143400      -0.89741900
O        0.20038400      -0.15287500      -1.16734700
C       -0.58491100      -0.00957500       1.94932300
N        0.37583400       0.41771700       2.40638100
C        0.38434000       1.23330100      -1.26187600
C       -1.80541400      -0.55144100       1.36892900
H        2.13836600      -0.67118500      -1.69190200
H        1.16744600      -1.89463900      -0.83616200
H        1.83610900      -0.50579200       0.05542500
H        1.07424000       1.49298100      -2.07653500
H       -0.58721000       1.68268800      -1.46381100
H        0.78243300       1.65071700      -0.32677800
H       -2.62636300       0.15055200       1.51013700
H       -1.66418300      -0.72343600       0.30245300
H       -2.05887400      -1.49541000       1.85003100
