11
Extracted from Q-Chem output
C      -1.715012      0.031513      0.018319
C      -0.241270     -0.178226      0.051352
C       0.784166      0.692462     -0.196175
N       1.895374     -0.051420     -0.015239
N       1.593330     -1.299938      0.321379
N       0.307447     -1.384232      0.363960
H      -2.182052     -0.631187     -0.711489
H      -1.957320      1.060581     -0.246217
H      -2.155797     -0.186733      0.991937
H       0.811347      1.731939     -0.474543
H       2.859787      0.215239     -0.103284
