11
Extracted from Q-Chem output
C      -1.522501     -0.002742     -0.075334
C      -0.159089      0.042590      0.502336
C       0.980209      0.654361     -0.078869
N       2.149090      0.198738     -0.299261
N       0.407065     -1.939323      0.140993
N       0.355044     -1.669353      1.218231
H      -1.601933     -0.338048     -1.113013
H      -1.861553      1.038864     -0.032688
H      -2.209057     -0.567210      0.554943
H       0.706736      1.714082     -0.230629
H       2.770359      0.939547     -0.605055
