12
Extracted from Q-Chem output
O       0.515243      0.066207     -1.633072
C       0.147288      0.026094     -0.376303
C      -1.313982     -0.305574     -0.278242
C      -1.839330     -0.390572      1.078553
N      -2.283922     -0.464492      2.131686
C       0.991324      0.257827      0.690405
C       2.353726      0.566672      0.585346
H       1.466457      0.283271     -1.650680
H       0.532895      0.188388      1.672574
H      -1.875059      0.449181     -0.835997
H      -1.483461     -1.256418     -0.790752
H       2.676198      0.599977     -0.483703
