12
Extracted from Q-Chem output
O       0.232986      0.456901     -1.800439
C       0.095647      0.118032     -0.512807
C      -1.309387     -0.364260     -0.254563
C      -1.612990     -0.608680      1.149050
N      -1.881529     -0.794696      2.247050
C       1.104343      0.257616      0.411828
C       2.310656      0.501224      0.841033
H       1.160681      0.653738     -1.974064
H       0.237497      1.030955      0.747037
H      -2.035736      0.343710     -0.661914
H      -1.433421     -1.296484     -0.813444
H       3.052394     -0.285652      0.688772
