11
Extracted from Q-Chem output
N      -1.982760     -0.363966      0.258179
C      -0.612814     -0.200856      0.092598
N       0.185691     -1.246543     -0.008533
N       1.422946     -0.721067     -0.082788
C       1.421816      0.620843     -0.044028
C       0.112642      1.013196      0.073592
H      -2.537457      0.325365     -0.221425
H      -2.284048     -1.300620      0.038673
H       2.208849     -1.337091     -0.162429
H       2.333929      1.193295     -0.094379
H      -0.268795      2.017444      0.150540
