11
Extracted from Q-Chem output
N      -1.837151     -0.498946      0.249475
C      -0.511661     -0.217041      0.002763
N       0.338753     -1.203982     -0.311537
N       1.661495     -0.596479     -0.397827
C       1.481844      0.700442     -0.130204
C       0.149749      1.008695      0.064150
H      -2.478725      0.258629      0.093687
H      -2.152261     -1.372310     -0.138916
H       1.294549     -1.420482      0.435143
H       2.336892      1.361013     -0.108121
H      -0.283485      1.980463      0.241385
