19
smiles: [C:1]([C:2]([C:3](=[O:4])[H:13])([H:11])[H:12])([H:8])([H:9])[H:10].[C:5](=[C:6]([H:17])[H:18])([H:15])[H:16].[O:7]([H:14])[H:19]
C        3.28107700      -0.39745000       1.03845400
C        2.29096900       0.42327300       0.21485300
C        0.86796800       0.05329500       0.52909100
O        0.00696700       0.82888900       0.83967900
C       -2.49636300       0.00757800      -1.93760000
C       -2.95774400       1.00289900      -1.20022900
O       -1.98884800      -1.21992100       1.23974000
H        4.30736400      -0.16133900       0.75709300
H        3.16945200      -0.19238700       2.10455000
H        3.13284800      -1.46880300       0.88499900
H        2.44564300       0.22201400      -0.85160000
H        2.41516800       1.49491200       0.37515800
H        0.64215500      -1.03448500       0.45978500
H       -1.49701900      -0.39807000       1.25843700
H       -3.14574000      -0.56920500      -2.58630200
H       -1.44936000      -0.27346800      -1.92285700
H       -4.00471800       1.28396600      -1.21506400
H       -2.30828300       1.57971900      -0.55167000
H       -2.61345800      -1.12658800       0.51940500
