19
Extracted from Q-Chem output
C       2.667133     -0.404272      0.598104
C       1.597811      0.138560     -0.344910
C       0.221829     -0.104351      0.243180
O      -0.095227      0.550761      1.293245
C      -0.942371      0.408278     -1.182896
C      -2.271280      0.365757     -0.759664
O      -2.433570     -0.042375      1.227227
H       3.665414     -0.246720      0.186610
H       2.607617      0.093745      1.565871
H       2.539056     -1.477287      0.762422
H       1.676790     -0.339372     -1.324878
H       1.730219      1.214360     -0.481020
H      -0.057793     -1.175147      0.210719
H      -1.416738      0.223344      1.444096
H      -0.655667     -0.345675     -1.908070
H      -0.534753      1.397140     -1.359437
H      -2.901071     -0.477526     -1.012810
H      -2.806291      1.271596     -0.516843
H      -2.493031     -0.995991      1.314971
