15
Extracted from Q-Chem output
C      -1.502274     -0.234842      0.303495
C      -1.342263      0.512206     -0.785164
O      -0.214617      0.878692     -1.433672
C       0.995921      0.989419     -0.707287
C       1.446537     -0.260310      0.020926
O       0.782922     -0.441048      1.244162
C      -0.501206     -1.001280      1.121484
H      -0.873508     -1.103807      2.141581
H      -2.535728     -0.383105      0.597273
H      -2.213202      0.903018     -1.299953
H       0.900747      1.798673      0.025968
H       1.742589      1.270275     -1.451499
H       1.334874     -1.142949     -0.625540
H       2.506443     -0.146980      0.260519
H      -0.414219     -2.019185      0.706110
