15
Extracted from Q-Chem output
C      -1.661123      0.692697      0.750524
C      -1.166053      0.105639     -0.457975
O      -0.193944      0.742273     -1.237222
C       1.017218      1.029282     -0.567243
C       1.603574     -0.267791     -0.075682
O       0.763818     -0.848336      0.909268
C      -0.592553     -0.928712      0.620995
H      -1.091978     -0.741410      1.602122
H      -2.633189      0.226481      0.968770
H      -1.824208     -0.399924     -1.164244
H       0.849711      1.718881      0.266174
H       1.669259      1.500888     -1.302483
H       1.739916     -0.955355     -0.919934
H       2.564496     -0.116736      0.416275
H      -0.907603     -1.925022      0.300924
