13
Extracted from Q-Chem output
C       2.377927      0.143178     -0.405250
O       1.249963     -0.460790      0.229354
C       0.110568     -0.261668     -0.378771
C      -1.010169     -1.057976     -0.004006
N      -2.167194     -0.675418      0.397083
C      -1.658945      1.583940      0.378172
N      -0.516923      1.528016      0.210432
H       2.345989     -0.049034     -1.477606
H       3.266520     -0.295839      0.044444
H       2.353380      1.218144     -0.219936
H      -0.814359     -2.095604     -0.302146
H      -2.855948     -1.417670      0.328161
H      -2.683162      1.831859      0.541193
