14
smiles: [C:1]([C:2](=[C:3]([H:10])[H:11])[H:9])([H:6])([H:7])[H:8].[N:4](=[C:5]([H:12])[H:14])[H:13]
C       -1.56579100      -0.15543600      -0.69702400
C       -1.15396400       0.33200000       0.65542600
C       -0.59125300      -0.41281300       1.59420500
N        2.01306600       1.13573500      -0.65083300
C        2.22859000      -0.09343400      -0.82826600
H       -2.63544000       0.00087900      -0.85915200
H       -1.04276800       0.39277000      -1.48507000
H       -1.35204600      -1.21808600      -0.82012400
H       -1.34105600       1.38325300       0.86310900
H       -0.38558600      -1.46634000       1.43315600
H       -0.31359800       0.00032100       2.55623200
H        2.99589700      -0.39591800      -1.54170800
H        1.27591200       1.28240200       0.03752200
H        1.69614300      -0.89943600      -0.31314100
