14
Extracted from Q-Chem output
C      -1.823697      0.516895     -0.436057
C      -0.505319      0.306603      0.252872
C      -0.050613     -1.026012      0.716681
N       0.526345     -0.412428     -0.463873
C       1.878805      0.084765     -0.327766
H      -2.616068      0.703912      0.292139
H      -1.776392      1.372166     -1.113573
H      -2.090232     -0.363841     -1.021448
H      -0.160326      1.145339      0.857163
H      -0.667252     -1.901039      0.541700
H       0.558811     -1.066424      1.615956
H       2.087739      0.498340      0.671153
H       2.584699     -0.725937     -0.517015
H       2.053500      0.867660     -1.067933
