19
smiles: [C-:2]1=[O+:3][C:4]([H:12])([H:13])[C:5]1([C:6]([H:14])([H:15])[H:16])[C:7]([H:17])([H:18])[H:19].[C:1]([H:8])([H:9])([H:10])[H:11]
C        2.61184000      -0.52431100      -2.04065100
C        0.74722600       0.66012900       0.93709600
O        0.41519900       1.89007800       0.58515900
C       -0.99252800       1.60994200       0.36071600
C       -0.69769600       0.15584400       0.76465200
C       -1.31405300      -0.29878200       2.07712400
C       -0.83417100      -0.88175600      -0.33605200
H        3.65796400      -0.35512500      -2.29153800
H        2.35356300      -1.56267600      -2.24301600
H        1.98372600       0.12985600      -2.64339800
H        2.45249100      -0.30962600      -0.98506700
H       -1.26093500       1.79921900      -0.67957100
H       -1.61695100       2.20473200       1.02869500
H       -1.17158000       0.44218800       2.86665200
H       -0.85292200      -1.23051100       2.40836100
H       -2.38712900      -0.46992200       1.95919400
H       -0.36097100      -1.81633800      -0.03072900
H       -0.35827400      -0.55222700      -1.26206500
H       -1.88726200      -1.08411500      -0.54764500
