10
smiles: [C:5](#[N:6])[H:10].[N:1]([C+:2]=[C:3]([O-:4])[H:9])([H:7])[H:8]
N       -0.16645400       1.25929200       0.95250100
C        0.46944200       1.32446200      -0.17082200
C        1.47488400       0.31140700      -0.42796500
O        1.23838600      -0.79794800      -0.85436900
C       -1.52881400      -1.67562900      -0.11091800
N       -2.50042300      -1.75490900       0.48716200
H       -0.02305500       0.53602500       1.65259000
H       -0.89524700       1.92525900       1.16332900
H        2.51842100       0.67848800      -0.30676700
H       -0.62150400      -1.60223500      -0.67017300
