13
Extracted from Q-Chem output
N      -1.853135      0.571099     -0.034208
C      -0.448962      0.360153      0.051621
C       0.058916     -0.894784      0.012490
O      -0.555283     -2.083347     -0.110554
N       1.431642     -0.812409      0.059487
C       1.881094      0.673393      0.236426
C       0.650884      1.275085      0.124854
H      -2.090585      1.222649     -0.769280
H      -2.229280      0.932451      0.832100
H      -1.497393     -1.886588     -0.201383
H       2.012716     -1.548527      0.430883
H       2.007172     -0.274588     -0.791813
H       0.540811      2.351701      0.109022
