13
Extracted from Q-Chem output
C      -1.590721      0.653184      0.389442
C      -0.784401     -0.595438     -0.039704
C       0.315099     -0.011171     -0.832663
C       1.543522      0.183927     -0.012138
O       2.063368     -1.078819     -0.452124
H      -2.463171      0.334328      0.959058
H      -0.999470      1.316675      1.023640
H      -1.931474      1.220201     -0.476922
H      -1.430138     -1.237140     -0.640655
H      -0.459218     -1.139936      0.856840
H       2.182600     -1.017854     -1.407345
H       2.186452      1.020839     -0.290923
H       1.453774      0.116447      1.078089
