14
Extracted from Q-Chem output
O       1.483494     -1.494604      0.967286
C       0.923973     -0.859642     -0.249725
C      -0.095050     -1.771792      0.309234
C      -1.668611      0.966571     -0.244530
C      -0.237477      1.383849     -0.158198
C       0.852966      0.621744     -0.162465
H       1.223311     -0.946473      1.717217
H       1.568738     -1.186657     -1.068205
H      -1.787859     -0.110712     -0.157310
H       0.092679     -2.756676     -0.141164
H      -2.096381      1.311814     -1.190168
H      -2.243271      1.443920      0.552843
H      -0.070311      2.458135     -0.112277
H       1.822046      1.115806     -0.141230
