13
smiles: [O:1]([C:2]1([H:9])[C:3]([H:10])=[C:4]1[H:12])[H:8].[O:5]=[C:6]([O:7][H:11])[H:13]
O       -0.03706600       0.14313100       0.92004200
C       -1.24691700      -0.42127200       0.48366900
C       -1.36487100      -1.11334800      -0.81653500
C       -1.39132400      -1.87110200       0.23807200
O        2.17428900       0.25467500      -0.84970700
C        2.03208800       1.43109200      -0.99672600
O        1.08951800       2.16845900      -0.40162400
H        0.68598800      -0.37798800       0.56259500
H       -2.05635600       0.17615300       0.89289900
H       -1.37215400      -1.03566800      -1.89141800
H        0.56340800       1.57693800       0.15380500
H       -1.43588800      -2.86405800       0.65444700
H        2.65500300       2.06665400      -1.63947700
