11
Extracted from Q-Chem output
N       2.272677      1.279116      0.387074
C       1.067805      1.027416      0.226399
O      -0.025371      1.544264      0.067673
C      -1.357230     -0.069065      0.364386
C      -0.383029     -0.906968     -0.216963
O       0.833915     -0.738693      0.199243
H       2.845109      0.450144      0.453897
H      -2.325283      0.068468     -0.107880
H      -1.242346      0.206096      1.402545
H      -1.138848     -1.592026      0.480376
H      -0.569344     -1.286339     -1.227386
