11
Extracted from Q-Chem output
C      -1.670952     -0.058089      0.171414
N      -0.235583     -0.005285      0.018182
N       0.459552      1.096538      0.100275
C       1.725580      0.733633      0.019353
C       1.868965     -0.685457     -0.003536
N       0.544109     -1.110855      0.019024
H      -1.947587     -0.057364      1.226516
H      -2.028215     -0.972862     -0.295551
H      -2.105414      0.808175     -0.321294
H       2.502455      1.481098      0.025781
H       1.177121     -1.453463     -0.905362
