20
Extracted from Q-Chem output
C      -1.717449      1.217680      0.173879
C      -0.026523      0.833340      1.033439
N      -0.655376     -0.116463     -0.253952
C      -1.204095     -1.419949      0.046227
C       0.747308      0.184266     -0.036317
C       1.622406     -0.997476      0.326457
C       1.356313      1.052648     -1.116869
H      -2.555497      0.694079     -0.315776
H      -2.091326      1.547399      1.144618
H      -1.440106      2.077618     -0.421737
H      -0.147155      0.157005      1.889496
H      -0.792224     -2.151519     -0.651685
H      -1.031866     -1.766988      1.069450
H      -2.284115     -1.376174     -0.117356
H       2.579403     -0.623627      0.694424
H       1.189965     -1.615511      1.111519
H       1.826808     -1.626240     -0.545056
H       0.683010      1.866965     -1.379720
H       1.565977      0.469829     -2.017720
H       2.290715      1.489426     -0.758535
