9
Extracted from Q-Chem output
N      -1.952515      0.218839     -0.132614
C      -0.694397      0.200688     -0.134834
N       0.098470     -0.918395      0.121005
N       1.386118     -0.406205      0.290715
N       1.383957      0.861299     -0.169948
N       0.223947      1.267379     -0.381866
H      -0.210780     -1.513418      0.875015
H      -2.286170      1.154722     -0.336016
H       2.131696     -0.955269     -0.117919
