18
Extracted from Q-Chem output
C      -1.825540     -1.017155      0.366649
C      -0.848222      0.067575      0.799881
C       0.069209      0.583705     -0.312998
C       0.988880      1.685505      0.205749
C       0.870065     -0.531239     -0.971167
O       1.633712     -1.199570      0.019650
H      -1.307434     -1.941296      0.103506
H      -2.413844     -0.702703     -0.500148
H      -2.525238     -1.254531      1.169875
H      -1.405577      0.920988      1.198402
H      -0.228350     -0.305876      1.619384
H      -0.563531      1.004061     -1.105623
H       1.671995      1.292913      0.961054
H       1.589444      2.112957     -0.600597
H       0.412653      2.495095      0.658526
H       1.526555     -0.098133     -1.737477
H       0.193913     -1.233670     -1.474085
H       2.161311     -1.878625     -0.400582
