18
Extracted from Q-Chem output
C      -1.715232     -1.084609      0.384433
C      -0.799439      0.057477      0.805881
C       0.136356      0.573644     -0.285016
C       0.971764      1.754624      0.216780
C       1.137628     -0.466227     -0.759944
O       1.746030     -1.245125      0.120146
H      -1.163166     -2.013359      0.225721
H      -2.259865     -0.849705     -0.534250
H      -2.454117     -1.288920      1.160589
H      -1.406938      0.901747      1.144343
H      -0.190567     -0.256473      1.656811
H      -0.449020      0.897640     -1.154594
H       1.611842      1.443949      1.044058
H       1.607392      2.164064     -0.571119
H       0.317602      2.553054      0.569438
H       1.722956     -0.112376     -1.627470
H       0.306572     -1.311541     -1.541137
H       0.858375     -1.719342     -0.860428
