15
Extracted from Q-Chem output
C      -2.112230     -0.036152     -0.227135
C      -0.762020      0.380062      0.314114
O      -0.792458      0.246074      1.719275
C       0.373074     -0.462511     -0.262532
C       2.625042      0.134502     -0.351242
N       1.617273     -0.075610      0.369142
H      -2.897853      0.566932      0.228174
H      -2.158161      0.096983     -1.309873
H      -2.308533     -1.084207      0.008328
H      -0.571521      1.430946      0.046619
H       0.121179      0.298730      2.020585
H       0.409274     -0.368886     -1.357187
H       2.611976      0.028575     -1.443248
H       3.562127      0.436048      0.112890
H       0.181296     -1.509652     -0.006787
