18
Extracted from Q-Chem output
C       2.712218     -0.108730      0.111801
C       1.345116      0.513046      0.285385
O       0.384484     -0.368649     -0.244307
C      -0.932448      0.146846     -0.317697
C      -1.706790     -0.773981     -1.240336
C      -1.581211      0.251855      1.056626
H       2.920375     -0.286318     -0.944104
H       2.764268     -1.063805      0.636171
H       3.484239      0.549963      0.513659
H       1.154164      0.708254      1.349168
H       1.292034      1.479378     -0.238300
H      -0.888023      1.151056     -0.768329
H      -2.728657     -0.415541     -1.376000
H      -1.745496     -1.780626     -0.818875
H      -1.222585     -0.829196     -2.215596
H      -1.039346      0.936176      1.710747
H      -1.607687     -0.730803      1.532916
H      -2.604655      0.621075      0.967071
