18
Extracted from Q-Chem output
C       2.716005     -0.181196      0.442134
C       1.462295      0.478843     -0.098959
O       0.392752     -0.432185     -0.135965
C      -1.340424      0.331786     -0.202224
C      -1.960743     -0.455919     -1.307261
C      -1.588685      0.043121      1.161257
H       2.996755     -1.032006     -0.180203
H       2.545935     -0.543850      1.457527
H       3.548385      0.525718      0.463814
H       1.200426      1.347292      0.529825
H       1.641540      0.855203     -1.112875
H      -1.012031      1.333818     -0.466322
H      -2.967023     -0.063056     -1.482517
H      -2.053318     -1.505223     -1.027380
H      -1.393075     -0.383422     -2.232977
H      -1.550471      0.860225      1.871743
H      -0.300415     -0.449843      0.899130
H      -2.288966     -0.753110      1.389167
