14
Extracted from Q-Chem output
O       1.589894      0.738476      0.211078
C       1.195506     -0.448137     -0.479406
C      -0.020916     -1.129125      0.128509
C      -1.352818     -0.437162     -0.014529
C      -1.643208      0.862946     -0.080972
O      -0.827746      1.930322     -0.043900
H       0.095993      1.649420      0.095868
H       2.038016     -1.146245     -0.506027
H       0.988176     -0.133465     -1.503217
H       0.191457     -1.339766      1.186508
H      -0.098919     -2.112353     -0.345331
H      -2.215347     -1.092093     -0.051465
H       1.837284      0.505705      1.108869
H      -2.679015      1.168760     -0.183706
