14
Extracted from Q-Chem output
O       1.139476      0.945247      0.140673
C       1.380630     -0.424720     -0.247457
C       0.007238     -1.129069     -0.185957
C      -0.952909     -0.260692      0.617974
C      -1.525388      0.849803     -0.010670
O      -0.964967      1.482666     -0.952165
H       0.415597      1.310469     -0.560829
H       2.096514     -0.824175      0.470601
H       1.821857     -0.431168     -1.241773
H       0.104043     -2.114797      0.267684
H      -0.372387     -1.265189     -1.201362
H      -1.497559     -0.709284      1.437923
H       0.251438      0.681822      0.832442
H      -2.461942      1.259997      0.391943
