12
Extracted from Q-Chem output
O       2.547692     -1.561795      0.538659
C       2.348794     -0.737144     -0.220858
O       1.197028      0.665954      0.174505
C      -0.055559      0.242480      0.581815
C      -0.987906     -0.436864     -0.385840
C      -1.261957      0.968015      0.086087
H       1.887025      0.082028     -0.895592
H      -0.084575     -0.110992      1.608809
H      -0.654472     -0.551406     -1.410046
H      -1.616291     -1.240871     -0.025652
H      -1.078759      1.766905     -0.620168
H      -2.082814      1.137805      0.770201
