16
Extracted from Q-Chem output
C      -1.129176     -0.795827     -1.117840
C      -0.986641     -0.444477      0.342121
C       0.610873     -0.006312      1.220131
C       1.794632     -0.194264      0.305533
C      -0.422238      0.920287      0.697276
O      -0.190851      1.701597     -0.456840
H      -0.180972     -0.723543     -1.647618
H      -1.820957     -0.105513     -1.602769
H      -1.510696     -1.811157     -1.229248
H      -1.834989     -0.708084      0.969113
H      -0.189200     -1.130477      0.934348
H       2.526994      0.533817      0.671942
H       2.253266     -1.174851      0.433466
H       1.648508      0.011588     -0.759596
H      -0.997208      1.479177      1.434559
H       0.381717      2.429962     -0.212306
