14
Extracted from Q-Chem output
O       0.872904      0.710046      1.551489
N       0.862915     -0.127807      0.406625
C      -0.135796      0.215620     -0.555384
C      -0.506259     -1.234162     -0.749589
C       0.219455     -1.447535      0.597668
C      -0.601577      1.398080     -0.923376
O      -0.174289      2.591990     -0.430472
H       1.805946      0.779802      1.770192
H      -0.003660     -1.710394     -1.591118
H      -1.567081     -1.472421     -0.768564
H      -0.473224     -1.423989      1.442026
H       0.920660     -2.275982      0.696872
H      -1.383079      1.493268     -1.665583
H       0.338430      2.411917      0.366187
