15
smiles: [C:1]([C:2]([O:3][H:11])=[C:6]=[O:7])([H:8])([H:9])[H:10].[C:4](=[C:5]([H:14])[H:15])([H:12])[H:13]
C       -1.75300500      -0.03558900      -1.19365700
C       -1.09041900      -0.86427200      -0.14092000
O       -1.08810800      -0.42600100       1.17693600
C        1.69601800       1.43884800       1.18042800
C        1.90098000       0.53103800       0.24159400
C       -0.58789100      -2.05595900      -0.38996900
O       -0.15972700      -3.10975100      -0.62413200
H       -2.79355400       0.15893100      -0.92259400
H       -1.24662100       0.92686100      -1.31271400
H       -1.73908700      -0.54271300      -2.15925800
H       -0.38999000       0.22515100       1.28520300
H        1.31258600       2.42490600       0.94400800
H        1.90362400       1.23415800       2.22460100
H        1.69340000       0.73563800      -0.80261100
H        2.28440400      -0.45507600       0.47783000
