14
Extracted from Q-Chem output
C       1.302998     -0.218778      0.039877
C       0.276996      0.414567      0.986993
C      -0.915680      0.925018      0.169827
C      -1.429948     -0.159050     -0.708815
O      -0.632860     -1.118083     -1.082619
C       0.638021     -1.229787     -0.824101
H       1.774786      0.574567     -0.555596
H       2.109440     -0.699359      0.599109
H       0.730628      1.230603      1.549718
H      -0.599422      1.800987     -0.412475
H      -1.720148      1.268756      0.824594
H      -2.458266     -0.320937     -0.987683
H      -0.063963     -0.330639      1.709636
H       1.072531     -2.145620     -1.189708
