16
Extracted from Q-Chem output
C       1.896861      0.364469      0.142816
N       0.838858     -0.541330     -0.233034
C      -0.019077     -1.094456      0.801890
C      -1.880980      0.203951      0.589440
C      -1.076899      1.115580     -0.308332
C      -0.308106     -0.049167     -0.983723
C      -1.265803     -0.938420     -0.141521
H       1.559879      1.187499      0.790908
H       2.339924      0.792799     -0.758255
H       2.678514     -0.183800      0.671992
H       0.184337     -2.124480      1.093188
H      -0.089809     -0.480878      1.718192
H      -0.613034      2.029032      0.067577
H      -1.875006      1.409319     -1.008679
H      -0.185946     -0.043427     -2.067878
H      -1.774425     -1.855047     -0.422289
