13
Extracted from Q-Chem output
C       1.264480     -0.298370      0.359680
C       0.874228      0.967992      0.322718
C      -0.590078      1.098715     -0.004176
C      -0.964733     -0.316132     -0.487687
C       0.132888     -1.247371      0.064666
H       0.408570     -2.031351     -0.644262
H       2.263845     -0.631787      0.612368
H       1.508843      1.818503      0.541035
H      -0.790866      1.863563     -0.757806
H      -1.153397      1.387959      0.890342
H      -1.966896     -0.616124     -0.180215
H      -0.941004     -0.340887     -1.579257
H      -0.185727     -1.754293      0.982539
