16
Extracted from Q-Chem output
C       1.351075      0.485951     -1.410947
N       1.206427      1.042742     -0.251882
C       1.186165      0.405670      0.911485
O       0.469604     -0.634922      1.220746
C      -0.666572     -1.011080      0.579964
C      -1.535316      0.068781      0.018691
O      -1.578937      1.231721      0.828911
H       0.080254     -1.249628     -1.692550
H       1.249681      1.101828     -2.298030
H       1.769160     -0.506787     -1.526468
H       1.753799      0.792544      1.747369
H      -0.210543     -1.486345     -0.953520
H      -1.132559     -1.798978      1.157230
H      -1.237239      0.343006     -1.004885
H      -2.545154     -0.343663     -0.038328
H      -0.980879      1.882424      0.454492
