14
Extracted from Q-Chem output
C       2.262448      0.200743      0.496457
N       1.205823      0.214775     -0.493254
C      -0.083063      0.038770     -0.148892
N      -1.041147      0.137088     -1.125331
N      -2.226661     -0.310259     -0.555202
C      -1.920750     -0.422068      0.803544
C      -0.604103     -0.271482      1.131549
H       1.859076     -0.266888      1.392644
H       3.115823     -0.370584      0.128513
H       2.587599      1.213123      0.749868
H       1.412123      0.611438     -1.392970
H      -3.024867      0.257289     -0.812602
H      -2.765376     -0.624699      1.453321
H      -0.872374     -0.190888     -2.064468
