14
Extracted from Q-Chem output
C       2.246526      0.162149      0.402935
N       1.116479      0.728311     -0.305788
C      -0.115163      0.141960     -0.146081
N      -1.094380      0.409141     -1.163593
N      -2.209374      0.072569     -0.558493
C      -1.992060     -0.456932      0.697219
C      -0.662880     -0.457373      1.043161
H       1.936652     -0.053629      1.423620
H       2.612276     -0.768857     -0.047133
H       3.058258      0.889009      0.420593
H       1.299004      1.066428     -1.236802
H      -3.037740     -0.021178     -1.125069
H      -2.858437     -0.792203      1.252332
H      -0.367116     -0.757558     -1.001542
