14
Extracted from Q-Chem output
C       2.070094      0.722478      0.504749
N       1.678983     -0.598711      0.607682
C       0.497750     -0.705425      0.146570
O      -0.376897     -1.691168      0.278722
C      -1.530668     -1.103009     -0.238172
C      -1.570949      0.357123     -0.064344
C      -0.163594      0.412314     -0.630328
H       1.708378      1.392095      1.281058
H       3.092554      0.908360      0.186377
H       0.797569      1.196596     -0.346643
H      -2.121124     -1.731821     -0.887026
H      -1.629749      0.709629      0.972458
H      -2.342118      0.824995     -0.670333
H      -0.115793      0.243038     -1.709109
