14
Extracted from Q-Chem output
N       2.580185      0.218862      0.452176
C       1.459901     -0.061443     -0.021038
O       0.903330     -1.285052     -0.319825
C      -0.306542     -0.658615     -0.824415
C      -1.389684     -0.534288      0.252224
C      -0.816483      0.850729      0.654747
C       0.257859      0.729365     -0.457076
H       3.129997     -0.618266      0.631580
H      -0.548383     -1.007615     -1.825508
H      -1.357774     -1.320328      1.005394
H      -2.396565     -0.480351     -0.161800
H      -0.421400      0.944587      1.665096
H      -1.512734      1.667809      0.474450
H       0.418293      1.554606     -1.143424
