10
smiles: [C:1]([C:2]#[N+:3][O-:4])([H:7])([H:8])[H:9].[C:5](#[N:6])[H:10]
C       -2.23736100      -0.15939300      -0.68852800
C       -0.78565300      -0.28059900      -0.75351500
N        0.35972500      -0.37597300      -0.80208800
O        1.55802000      -0.47566200      -0.85333500
C        2.98042400       0.57751500       1.67055300
N        3.37463600       0.99092300       2.66133100
H       -2.70736500      -0.83901000      -1.39981500
H       -2.59332200      -0.40401200       0.31256700
H       -2.54334300       0.85948300      -0.92732400
H        2.61111500       0.19148000       0.74540300
