10
Extracted from Q-Chem output
C      -1.724918      0.012132     -0.110423
C      -0.302473     -0.185567     -0.369937
N       0.576934     -0.597413     -1.056219
O       1.818059     -0.634039     -1.040626
C       1.973950      0.364994      0.770400
N       0.886505      0.599649      1.124750
H      -2.301729     -0.369726     -0.952792
H      -2.018358     -0.514654      0.796937
H      -1.933664      1.073388      0.018879
H       3.042574      0.335991      0.784280
