14
Extracted from Q-Chem output
C      -1.288334     -0.874760     -0.036379
C      -0.805440      0.222929     -0.940536
C       0.753307      1.153144      0.469467
O       0.336313      0.857862      1.684355
C       1.786673      0.223728     -0.024479
O       2.426201     -0.455258      0.754079
H      -2.086345     -1.440061     -0.523257
H      -1.693437     -0.469999      0.892592
H      -0.492421     -1.578479      0.215044
H      -1.609355      0.882432     -1.276362
H      -0.224439     -0.110408     -1.796587
H      -0.184431      1.202354     -0.415425
H       0.760769      0.021537      1.965238
H       2.019349      0.253172     -1.100970
