17
Extracted from Q-Chem output
C      -1.857093      0.314779     -0.008217
C      -0.756097     -0.686285     -0.457465
C      -0.106898      0.107168     -1.523333
C       1.152265      0.744671     -1.089163
C       1.486908      0.827432      0.374232
C       0.995640     -0.060687      1.226623
C       0.104010     -1.158388      0.727055
H      -2.518186      0.569697     -0.834500
H      -2.442000     -0.158307      0.781805
H      -1.428731      1.233690      0.394729
H      -1.281894     -1.537557     -0.897537
H       0.715415     -2.008687      0.401438
H       1.343319      1.673206     -1.631361
H       1.822596      0.019288     -1.602683
H       2.125808      1.636384      0.711742
H       1.226008     -0.002944      2.284733
H      -0.535765     -1.538045      1.528073
