17
Extracted from Q-Chem output
C      -1.731984      0.540927     -0.021643
C      -0.927354     -0.703335     -0.342914
C       0.252512     -0.715196     -1.244815
C       1.140708      0.500683     -1.042526
C       1.378492      0.825235      0.413604
C       0.902905     -0.060594      1.275957
C       0.153503     -1.188731      0.651345
H      -2.299661      0.839519     -0.905619
H      -2.450982      0.337678      0.774708
H      -1.119361      1.386082      0.286870
H      -1.603741     -1.527118     -0.575045
H       0.885808     -1.694910     -0.091612
H       0.620207      1.330598     -1.547118
H       2.089362      0.383362     -1.573169
H       1.902447      1.727571      0.707284
H       1.012441      0.018508      2.349998
H      -0.159996     -2.024864      1.270862
