13
Extracted from Q-Chem output
C      -1.074479     -0.516558      1.167636
C      -0.453447     -0.768689     -0.176981
N      -0.769628      0.150903     -1.240606
C       0.618620      0.100638     -0.763546
C       1.116634      1.262171     -0.022743
O       2.401119      1.462494     -0.074179
H      -1.168008      0.552754      1.349288
H      -0.471938     -0.958330      1.963543
H      -2.069787     -0.963836      1.204862
H      -0.344043     -1.816703     -0.445629
H      -0.831647     -0.313666     -2.137719
H       1.375155     -0.384094     -1.381408
H       1.731108      2.177986      0.563948
