15
Extracted from Q-Chem output
C       2.311583     -0.220851     -0.149835
C       0.905708     -0.587668      0.300072
C      -0.165524     -0.500720     -0.691713
C      -1.770017      1.156609     -0.138614
C      -1.497771     -0.363708     -0.067635
H       2.395083      0.858303     -0.289630
H       3.059456     -0.521266      0.586461
H       2.541125     -0.697008     -1.103179
H       0.830881     -1.691712      0.425067
H       0.660596     -0.181988      1.296281
H      -1.738169      1.512825     -1.168089
H      -2.758074      1.362105      0.272868
H      -1.039090      1.721936      0.442359
H      -1.559182     -0.683871      0.984368
H      -2.268781     -0.873198     -0.648800
