14
Extracted from Q-Chem output
O       2.274024     -0.316464      0.320212
C       1.298959      0.366541     -0.387933
C       0.110356     -0.506677     -0.885175
C      -0.401901     -1.197929      0.334023
C      -1.814412     -0.746671      0.221037
N      -0.794192      0.284467     -0.064550
C       0.257320      1.177032      0.471618
H       1.785502     -0.969242      0.847453
H       1.786111      0.968393     -1.153441
H      -0.139468     -0.689413     -1.929714
H       0.389776      1.103735      1.549580
H      -2.456856     -0.887730     -0.652593
H      -2.359342     -0.653769      1.155996
H       0.104891      2.209703      0.153658
