11
Extracted from Q-Chem output
C      -1.761963     -0.379472     -0.122345
C      -0.626857      0.508047      0.283708
O       0.168956      0.073984      1.416934
C       0.744181      0.101877      0.168022
C       1.877897     -0.114877     -0.404162
N       2.899436     -0.454670     -0.999291
H      -2.618059     -0.223960      0.536332
H      -2.068794     -0.144302     -1.143125
H      -1.461390     -1.425618     -0.078084
H      -0.827870      1.577257      0.303166
H       3.586691      0.293683     -1.083218
