12
smiles: [O:1]1[C:2]([H:8])([H:9])[C@@:3]1([C:5](=[O:6])[H:12])[H:10].[O:4]([H:7])[H:11]
O       -1.86299100       0.28076300       0.85228200
C       -1.23501500      -0.94729300       1.13037900
C       -0.60089400       0.04224200       0.25191400
O        1.25821800      -0.15751400      -2.36253900
C        0.52139400       0.85394300       0.80318400
O        1.52522900       1.09760400       0.19606200
H        1.62416600       0.28859800      -3.12738200
H       -1.68560800      -1.82490200       0.67764200
H       -0.87669100      -1.06894300       2.14939000
H       -0.59668600      -0.11271400      -0.82281100
H        1.58874600       0.32523500      -1.60390000
H        0.35344700       1.21388500       1.84003500
