12
Extracted from Q-Chem output
O      -1.259037      0.725851     -0.171702
C      -1.196370     -0.501076      0.458580
C       0.253566     -0.546819      0.284539
O       0.398569     -0.111236     -1.797717
C       0.953701      0.618863      0.893789
O       2.060636      0.954217      0.561794
H      -0.381923      0.438908     -1.495957
H      -1.722539     -1.316918     -0.052966
H      -1.509551     -0.494738      1.514747
H       0.850773     -1.375365     -0.074100
H       1.162860      0.475009     -1.809211
H       0.386833      1.132548      1.686875
