14
Extracted from Q-Chem output
C       1.525260      0.488992      0.444584
C       0.247358      0.341847     -0.358211
C      -0.253612     -1.076494     -0.705295
C      -1.652865     -0.958725     -0.045060
O      -1.309504     -0.435205      1.229505
C      -1.040231      0.650627      0.395430
H       1.465177     -0.082452      1.372063
H       1.715566      1.534953      0.696958
H       2.381391      0.121002     -0.124133
H       0.296279      0.941102     -1.270221
H       0.292614     -1.883786     -0.212902
H      -0.311805     -1.282292     -1.772524
H      -1.908821      0.406361     -0.455505
H      -1.369163      1.603853      0.802015
