13
smiles: [C:1]([C:3](=[C:2]([H:9])[H:10])[H:11])([H:6])([H:7])[H:8].[C:4](=[O:5])([H:12])[H:13]
C       -1.26354300       1.10581000       0.02872500
C       -0.72285700      -1.32633400      -0.21658800
C       -0.89153600      -0.12195800      -0.73992500
C        2.25073600      -0.06958500       0.51678800
O        3.07818500      -0.91679800       0.68290500
H       -1.38408000       0.89046300       1.09128400
H       -0.49972100       1.87989700      -0.08187500
H       -2.19961400       1.52925200      -0.34459000
H       -0.45250500      -2.17750200      -0.82958900
H       -0.85078700      -1.50520300       0.84631100
H       -0.75290100       0.00747500      -1.81108100
H        2.14455600       0.46346500      -0.44752900
H        1.54653600       0.22608500       1.31804900
