11
smiles: [H:9][H:10].[O:1]([N-:2][C:3]1=[C:4]([H:8])[O+:5]=[C:6]1[H:11])[H:7]
O        2.62954500      -0.25582000      -0.80734000
N        1.84610000       0.84280900      -0.60548900
C        0.62222700       0.50864500      -0.44572300
C       -0.46531000       1.40639300      -0.12772200
O       -1.37701900       0.56625800       0.01244400
C       -0.29757900      -0.62557700      -0.50076200
H        3.51074300       0.10706100      -0.93014300
H       -0.61333600       2.48230200      -0.03953300
H       -2.88934700      -1.64985900       1.56457400
H       -2.88940500      -2.29004200       1.94478800
H       -0.26387300      -1.32591400       0.33485700
