11
Extracted from Q-Chem output
O       2.245681     -0.664656     -0.394382
N       1.529022      0.378081      0.116766
C       0.285785      0.212770     -0.016384
C      -0.875749      1.070437      0.289171
O      -1.616105      0.353147     -0.555426
C      -0.718301     -0.694635     -0.614302
H       3.159540     -0.403577     -0.253427
H      -1.112080      2.084677      0.561472
H      -1.217199     -0.262912      1.583413
H      -1.144929     -0.967850      1.162622
H      -0.722919     -1.339224     -1.479572
