14
Extracted from Q-Chem output
O       1.197142     -0.503908     -0.670183
C       0.942353      0.467900      0.260238
C       1.947489      0.901356      1.017999
C       0.145722     -1.186694     -1.197641
C      -1.116503     -1.003676     -0.849212
C      -1.467520      0.055369      0.142938
N      -0.345890      0.978433      0.246482
H       1.782981      1.665412      1.763579
H       2.944438      0.517931      0.865944
H       0.480489     -1.910223     -1.927970
H      -1.891052     -1.609203     -1.296935
H      -1.728431     -0.393477      1.112977
H      -2.340562      0.616271     -0.198897
H      -0.468086      1.697903      0.939274
