14
Extracted from Q-Chem output
O       2.316210      0.214229      0.216659
C       1.105812      0.002319     -0.483969
C       0.614049     -1.202556      0.348158
C      -0.310674     -0.264882      1.018065
C      -1.481983     -0.469177     -0.017089
N      -1.239683      0.866575     -0.560310
C       0.050766      0.948120      0.114846
H       2.805909     -0.616402      0.217832
H       1.244120     -0.047302     -1.569348
H      -1.215042      0.938052     -1.570086
H      -0.580371     -0.289686      2.068624
H      -1.320880     -1.307916     -0.713304
H      -2.447838     -0.611673      0.466221
H       0.376595      1.936528      0.436301
