14
Extracted from Q-Chem output
O       2.301076      0.141592      0.514247
C       1.276642      0.318847     -0.426412
C       0.329445     -0.906325     -0.540443
C      -0.395350     -0.463297      0.785415
C      -1.759389     -0.290306      0.170900
N      -0.984334      0.459634     -0.880085
C       0.033889      0.891951      0.182498
H       2.923049     -0.502846      0.168928
H       1.637419      0.756966     -1.363182
H      -0.482919     -0.516962     -1.451064
H      -0.125895     -0.878469      1.753735
H      -2.261583     -1.180811     -0.214222
H      -2.468055      0.366906      0.679190
H      -0.107001      1.899351      0.593096
