14
Extracted from Q-Chem output
C       2.103763      0.329491      0.296923
N       1.229465      0.545391     -0.774044
C      -0.003427      0.090960     -0.646743
N      -1.086476      0.470403     -1.345317
N      -2.086459      0.101175     -0.542813
C      -1.759888     -0.496282      0.592113
C      -0.311187     -0.567667      0.632794
H       0.456750      0.097738      1.303430
H       2.290457     -0.718453      0.521045
H       3.008007      0.924107      0.226561
H       1.397831      1.283567     -1.438891
H      -3.024122      0.304720     -0.847984
H      -2.511124     -0.875757      1.264545
H       0.108539     -1.553533      0.859507
