16
Extracted from Q-Chem output
C       1.713303     -1.080030     -0.162369
C       0.868101      0.169696     -0.014156
O       1.755390      1.266599     -0.150693
C      -0.395335      0.226494     -0.925784
N      -1.210403      0.217857      0.306247
C      -2.513036      0.153330      0.393055
C      -0.128587      0.241545      1.100935
H       1.088711     -1.974280     -0.151287
H       2.427132     -1.142479      0.659510
H       2.275088     -1.050391     -1.098428
H       1.327640      2.029400      0.245941
H      -0.599168     -0.642808     -1.551738
H      -0.512075      1.151614     -1.488671
H      -2.978715      0.096337      1.364004
H      -3.084151      0.173564     -0.520515
H      -0.115858      0.118775      2.173547
