13
Extracted from Q-Chem output
O       0.544308     -2.420722     -0.214778
C       0.304848     -1.248309     -0.217318
C      -1.101419     -0.648758     -0.367978
C      -0.975308      0.673521      0.236079
C       0.396718      1.083652      0.489496
O       0.643157      2.294712      0.079892
C       1.268755     -0.096311     -0.066380
H      -1.921514     -1.271574     -0.007685
H      -1.279904     -0.505661     -1.448837
H       0.407500      0.897114      1.628563
H      -1.781040      1.387998      0.369024
H       2.127237     -0.347716      0.549320
H       1.618686      0.204605     -1.057849
