13
Extracted from Q-Chem output
C       1.662335     -0.282685      0.483783
C       0.845465      0.735857     -1.074081
N       0.054774     -0.017225     -1.825307
C      -1.096512     -0.316974     -1.155535
C      -1.067688      0.163005      0.118823
O      -1.894536      0.106817      1.191095
N       0.146997      0.774749      0.242969
H       1.683029     -1.154249     -0.155104
H       1.334183     -0.529851      1.492392
H       2.580371      0.286546      0.466154
H      -1.906093     -0.860745     -1.624738
H      -2.678142     -0.396453      0.961725
H       0.316533      1.510231      0.913484
