16
Extracted from Q-Chem output
C       1.993346     -0.594167      0.355095
C       0.528747     -0.994463      0.241105
C      -1.657338     -0.616088     -0.983812
C      -1.966984      0.706030     -0.348368
C      -0.540413      1.231686     -0.601399
C      -0.187382     -0.247409     -0.888270
H       2.475317     -1.107012      1.189106
H       2.100431      0.480303      0.520509
H       2.540157     -0.846741     -0.555844
H       0.439993     -2.068531      0.059168
H       0.017902     -0.798125      1.189493
H      -2.867607      1.241895     -0.652835
H      -2.101537      0.446427      0.714047
H      -0.027297      1.732925      0.222248
H      -0.474529      1.861859     -1.487340
H       0.342275     -0.460740     -1.823871
