15
Extracted from Q-Chem output
C      -1.808521      0.449555      0.439208
C      -0.886402     -0.242122     -0.555330
C       0.309208     -0.925131      0.100885
N       1.182014      0.000354      0.822133
C       2.162637      0.746322      0.339308
O       2.259535      0.526611     -0.986627
H      -2.666446      0.898120     -0.063597
H      -2.191951     -0.256449      1.181292
H      -1.287351      1.248200      0.971253
H      -0.517562      0.477849     -1.289512
H      -1.442527     -1.001954     -1.112536
H       0.906512     -1.439843     -0.651223
H      -0.032693     -1.674273      0.819615
H       1.027595      0.106802      1.808617
H       2.987116      1.066199     -1.296676
