15
Extracted from Q-Chem output
C      -1.837695      0.428925      0.507869
C      -0.964040     -0.249407     -0.538576
C       0.291863     -0.892600      0.039041
N       1.192617      0.064679      0.673173
C       2.210845      0.635437      0.050234
O       2.441306      0.338462     -1.206479
H      -2.742968      0.840106      0.059291
H      -2.144551     -0.276234      1.285338
H      -1.312335      1.256048      0.990773
H      -0.664705      0.470784     -1.304004
H      -1.534771     -1.030365     -1.049481
H       0.854557     -1.389388     -0.751299
H       0.029175     -1.645576      0.786218
H       1.043191      0.321550      1.632207
H       3.134318      1.120288     -0.592670
