20
Extracted from Q-Chem output
C       2.499695     -0.197105     -0.917378
C       1.565507     -1.068922     -0.428874
C      -0.224526      0.056816      0.637434
C       0.055075      1.400564      0.627765
C      -1.348711     -0.521039     -0.185087
C      -2.710326     -0.317515      0.481153
H       3.436009     -0.046645     -0.391205
H       2.519503      0.039279     -1.975721
H       2.002804      1.229382     -0.567743
H       0.833486     -1.503181     -1.094735
H       1.745442     -1.602365      0.494307
H       0.043191     -0.503626      1.526183
H      -0.518298      2.059583     -0.018820
H       0.489602      1.871420      1.501925
H       1.334333      1.613795     -0.173247
H      -1.192845     -1.591201     -0.343216
H      -1.352900     -0.056347     -1.176234
H      -2.934845      0.744357      0.598339
H      -3.509866     -0.772529     -0.107616
H      -2.728485     -0.770042      1.475457
