13
Extracted from Q-Chem output
C       1.802803      0.179122      0.002791
C       0.326955     -0.018234     -0.013381
C      -0.359121     -1.111722     -0.326416
N      -1.751447     -0.826779     -0.204528
C      -2.062387      0.397156      0.173135
C      -0.698319      1.030114      0.328879
H       2.144732      0.488254      0.993604
H       2.334252     -0.732683     -0.270982
H       2.096661      0.965865     -0.696583
H      -0.018575     -2.090430     -0.633263
H      -2.454405     -1.522417     -0.395945
H      -0.640201      1.913860     -0.316368
H      -0.596879      1.412800      1.350544
