10
Extracted from Q-Chem output
N      -0.474595      1.366139     -1.491127
C      -0.082454      0.860959     -0.468350
O       1.366040      0.761887      0.024999
C       1.609930     -0.465536      0.359731
O       0.743522     -1.325905      0.473645
C      -0.907951      0.029627      0.419119
O      -1.996042     -0.348059     -0.115762
H      -1.946189      0.075423     -1.026678
H       2.668467     -0.682611      0.540272
H      -0.834090     -0.089025      1.492523
