14
Extracted from Q-Chem output
C      -1.595054     -0.963238      0.011520
C      -0.432793     -0.231434     -0.616065
C      -0.193321      1.201934     -0.079791
N       1.177843      1.199386      0.414789
C       1.592956      0.015383      0.253068
O       2.788084     -0.452840      0.583131
O       0.804161     -0.913086     -0.295325
H      -1.495178     -0.978364      1.098479
H      -1.654525     -1.990624     -0.348788
H      -2.528214     -0.455562     -0.241942
H      -0.517873     -0.245248     -1.705258
H      -0.888995      1.444646      0.729431
H      -0.322432      1.956224     -0.858353
H       3.272499      0.281026      0.975322
