14
Extracted from Q-Chem output
C      -1.629911     -0.926109     -0.049168
C      -0.361116     -0.291299     -0.555144
C      -0.073346      1.142004     -0.023634
N       1.344579      1.057465      0.267099
C       1.685170     -0.199851      0.270900
O       2.857746     -0.366878      0.718440
O       0.792458     -1.084535     -0.121980
H      -1.630092     -0.971443      1.040920
H      -1.746653     -1.935919     -0.442538
H      -2.487452     -0.331739     -0.371349
H      -0.332216     -0.301849     -1.647471
H      -0.664623      1.359458      0.872854
H      -0.305450      1.894889     -0.777847
H       2.554629      0.937153      0.808799
