12
Extracted from Q-Chem output
O       1.225272      2.220650      0.857203
C       0.609704      1.268348      0.444774
N       1.150967      0.196646     -0.198302
C       0.296506     -0.925046     -0.498898
C      -1.075476     -0.496468     -0.039988
O      -1.096923     -0.081957      1.308174
C      -0.913374      1.176779      0.697289
H       2.153339      0.135152     -0.268727
H       0.605152     -1.828439      0.036399
H       0.277813     -1.144881     -1.570746
H      -1.922139     -1.142072     -0.260762
H      -1.377699      0.494530     -0.607365
