12
Extracted from Q-Chem output
N       2.217580     -0.360616      0.116939
C       0.867727      0.087965      0.004948
C       0.994184      1.381245     -0.199728
C      -1.897284      0.800902     -0.178350
C      -1.474181     -0.443047      0.033674
N      -0.150737     -0.817842      0.120984
H       2.765477     -0.306359     -0.725599
H       2.717078     -0.037098      0.928607
H      -1.218256      1.640004     -0.301991
H      -2.955796      1.008300     -0.235558
H      -2.170653     -1.263957      0.154340
H       0.107297     -1.771526      0.294963
