12
Extracted from Q-Chem output
C       1.786383     -0.358438     -0.252812
O       0.680255     -0.424788      0.638405
C      -0.430996      0.211353      0.197223
O      -0.214240      1.559663      0.021269
C      -1.724290     -0.351927      0.532738
O      -1.183485     -0.400160     -0.811975
H       1.511036     -0.749495     -1.235987
H       2.150073      0.665543     -0.350673
H       2.562755     -0.984363      0.180705
H      -1.774212     -1.312704      1.033553
H      -2.579929      0.304868      0.655096
H      -0.812204      1.864907     -0.665274
