12
Extracted from Q-Chem output
C       2.039832     -0.401847      0.063614
O       0.676823     -0.610276      0.441033
C      -0.213936      0.186896     -0.136874
O       0.053038      1.045716     -0.937256
C      -1.625034     -0.097278      0.320477
O      -2.534436      0.753047     -0.307739
H       2.169340     -0.574616     -1.004515
H       2.347609      0.615981      0.301522
H       2.618090     -1.119309      0.638939
H      -1.850064     -1.147163      0.101208
H      -1.660687      0.022043      1.409419
H      -2.020576      1.326807     -0.889829
