10
Extracted from Q-Chem output
O       2.213654      0.188856     -0.528715
C       0.898914      0.013072     -0.383962
N       0.365403     -1.273173     -0.673975
N      -0.864993     -1.281912     -0.492936
C      -1.301008      0.040780     -0.048938
C      -0.062348      0.852802      0.000613
H       2.590202     -0.645921     -0.826985
H      -1.809129     -0.083459      0.913111
H      -2.055677      0.394347     -0.759425
H       0.028470      1.887089      0.285686
