10
Extracted from Q-Chem output
O       2.191781      0.158236     -0.428019
C       0.869159     -0.021898     -0.388622
N       0.340055     -1.246468     -0.545067
N      -0.972360     -1.148929     -0.520947
C      -1.285679      0.214092     -0.227033
C      -0.093230      0.941720     -0.162544
H       2.595328     -0.700881     -0.592820
H      -1.380189     -0.698354      0.646111
H      -2.304790      0.552467     -0.354869
H       0.043265      1.993129      0.021637
