11
Extracted from Q-Chem output
N       2.108090      0.281551     -0.237671
C       0.869759     -0.041653     -0.071450
C       0.069266      1.155676     -0.188637
C      -1.175158      0.696349     -0.004567
C      -1.166680     -0.798618      0.232593
O       0.240258     -1.168249      0.165026
H       2.891220     -0.354989     -0.210423
H       1.555460      1.452262     -0.373853
H      -2.111264      1.242413     -0.009208
H      -1.695136     -1.373780     -0.531861
H      -1.537886     -1.097042      1.216242
