11
Extracted from Q-Chem output
N       2.009450      0.879981      0.000512
C      -0.289073     -0.820481     -0.526092
C      -1.721237     -0.797477     -0.054716
O      -1.394694      0.405477      0.735987
C      -0.142920      0.264856      0.233895
O       0.760632      1.165637      0.615451
H       2.650183      0.792562      0.782229
H       2.244089      1.741216     -0.481481
H       0.319565     -1.425514     -1.168728
H      -2.492324     -0.552785     -0.785605
H      -2.047381     -1.592970      0.615782
