9
Extracted from Q-Chem output
O       2.025577     -0.587805     -0.700440
C       0.894401     -0.401226     -0.369544
C       0.339929      0.850149      0.307169
O      -1.046490      0.546913      0.477055
C      -1.196940     -0.678307     -0.032793
N      -0.194025     -1.291911     -0.525009
H       0.797558      1.021889      1.280724
H       0.445484      1.734651     -0.319763
H      -2.206778     -1.069426      0.015778
