15
Extracted from Q-Chem output
O       0.530775     -1.119217     -1.402755
C       0.414245     -1.244730     -0.111911
C      -0.973038     -1.091849      0.360957
C      -1.234959      0.451453      0.087815
C       0.049425      1.184186     -0.182251
C       1.187221      0.756125      0.544812
C       1.460557     -0.602899      0.612627
H      -1.658165     -1.691136     -0.237649
H      -1.090046     -1.326291      1.415230
H      -1.965681      0.612358     -0.705175
H      -1.669027      0.815063      1.020666
H       0.501586      0.024867     -1.391420
H      -0.030651      2.227653     -0.463573
H       1.997183      1.452184      0.736860
H       2.490018     -0.926203      0.523447
