15
Extracted from Q-Chem output
C      -1.126125      1.084794      0.812455
C      -0.817161     -1.019814     -1.372274
N       0.108541     -0.560123     -0.574948
C       1.200383     -1.146706     -0.036880
C       1.878616     -0.146956      0.702753
N       1.312464      1.014527      0.703502
C       0.101206      0.859725     -0.050873
H      -2.045965      0.948188      0.241565
H      -1.117560      0.385551      1.649495
H      -1.097565      2.098988      1.207831
H      -1.591252     -0.351356     -1.712082
H      -0.782059     -2.050215     -1.689736
H       1.453169     -2.174214     -0.233193
H       2.810458     -0.314598      1.232216
H       0.100857      1.518396     -0.922409
