12
Extracted from Q-Chem output
C      -1.792166      0.532373      0.217296
C      -0.325332      0.239257      0.214407
O       0.351745      0.793158      1.167046
N       0.260153     -0.511048     -0.660236
C       2.050072     -0.746215     -0.473441
N       2.560155     -0.187618      0.440408
H      -1.938959      1.611565      0.167259
H      -2.302725      0.054564     -0.616825
H      -2.220487      0.182305      1.156995
H      -0.331174     -0.910084     -1.374378
H       2.248023     -1.400623     -1.311719
H       1.362054      0.496920      1.043067
