11
Extracted from Q-Chem output
C      -1.529212     -0.160498     -0.332544
C      -0.236885      0.112436      0.157933
O      -0.317144      0.881623      1.181568
C       1.105067     -0.309743     -0.327760
O       2.153853      0.480698      0.148366
H      -2.131595     -0.729508      0.374318
H      -1.705776     -0.414143     -1.371580
H      -1.481090      0.913812      0.698443
H       1.100199     -0.292232     -1.421473
H       1.220991     -1.363847     -0.031272
H       1.859078      0.895970      0.965536
