13
Extracted from Q-Chem output
N      -2.013383     -0.345407     -0.464675
C      -1.099149      0.098131      0.399210
O       0.089610      1.103708     -0.329531
C      -0.115713     -0.956650      0.830010
O       1.102947     -0.301045      1.158023
C       1.277943      0.755165      0.314774
N       1.506964      0.490554     -1.051824
H      -2.768768      0.254621     -0.740976
H      -1.871535     -1.169755     -1.037831
H       0.067695     -1.718559      0.052998
H      -0.465946     -1.451382      1.735262
H       1.813471      1.560763      0.815689
H       1.873859      1.339777     -1.479689
