13
Extracted from Q-Chem output
O       1.059973     -1.041259      1.382697
C       0.167190      0.012776      0.242132
C      -0.334585     -1.257480     -0.067489
N      -0.938205      0.726656     -0.941330
C      -0.921734      0.972707      0.528286
C       0.546110      0.756139     -0.985979
H       1.926089     -1.216993      0.996875
H       0.106871     -1.847910     -0.860567
H      -1.173835     -1.666635      0.478740
H      -0.613621      1.979712      0.815002
H      -1.798666      0.626568      1.069248
H       0.998629      0.215597     -1.814779
H       0.986476      1.743595     -0.833593
