18
smiles: [C:1]([O:2][C:3](=[C:7]([H:17])[H:18])[H:11])([H:8])([H:9])[H:10].[C:4](=[N:5][C:6]([H:14])([H:15])[H:16])([H:12])[H:13]
C        2.43223500       0.78182800       0.53748000
O        1.28537500       0.26215100      -0.10088400
C        1.23198200       0.44839700      -1.43872500
C       -1.45900900      -1.86342000       0.77711600
N       -2.47674700      -1.12662100       0.76571800
C       -2.27870500       0.30246300       0.84046900
C        0.18871700       0.08782100      -2.16946900
H        2.34993100       0.52550600       1.59167200
H        2.48328000       1.87085700       0.43744900
H        3.34766000       0.33858800       0.13219200
H        2.11285700       0.91072700      -1.88104800
H       -1.58080600      -2.94381000       0.72045900
H       -0.43461800      -1.47217500       0.84170500
H       -2.73135200       0.76875700      -0.03662500
H       -1.22155400       0.59602900       0.89859500
H       -2.80468000       0.68810400       1.71585800
H       -0.68270700      -0.37051400      -1.72062900
H        0.20324200       0.24958900      -3.23711200
