14
Extracted from Q-Chem output
C      -1.472774     -0.453005     -0.029644
C      -0.087348      0.019852      0.339829
C       1.056493     -0.796206     -0.293465
O       1.279491      0.227288     -1.271783
C       0.458066      1.153686     -0.549929
O      -0.065400      0.209821      1.729392
H      -1.701849     -1.384879      0.489623
H      -1.542918     -0.622006     -1.105077
H      -2.213428      0.294707      0.258105
H       0.804772     -1.758432     -0.745882
H       1.920052     -0.919373      0.372632
H       0.804711      0.518088      1.992106
H       1.059698      1.885562      0.004166
H      -0.247975      1.678432     -1.198021
