14
Extracted from Q-Chem output
C      -1.542667     -0.525181      0.184228
C      -0.147398      0.019019      0.129197
C       1.057260     -0.807182     -0.310085
O       2.071744      0.097683     -0.067563
C       0.148540      1.303735     -0.520570
O       0.264917      0.613517      1.375958
H      -1.585219     -1.319175      0.930751
H      -1.828126     -0.940481     -0.783828
H      -2.262216      0.245741      0.463746
H       0.936384     -1.078703     -1.373507
H       1.157347     -1.742387      0.265616
H       1.275836      0.536606      1.204433
H      -0.407782      2.173097     -0.185769
H       0.874886      1.421353     -1.309451
