16
Extracted from Q-Chem output
C      -0.866489     -0.344736     -1.171741
C      -0.036438     -0.014123      0.075073
C       1.421631     -0.432236     -0.151768
C      -0.135694      1.464494      0.424838
C      -0.573481     -0.870638      1.205591
O      -1.024743     -0.465026      2.239670
H      -0.838084     -1.413396     -1.399755
H      -1.910393     -0.052017     -1.041622
H      -0.469214      0.189814     -2.037057
H       2.039969     -0.201702      0.718247
H       1.834200      0.100224     -1.011170
H       1.504565     -1.503307     -0.353793
H       0.440594      1.695198      1.321682
H       0.245747      2.073664     -0.397521
H      -0.521899     -1.965682      1.007535
H      -1.169814      1.752770      0.617595
