16
Extracted from Q-Chem output
C      -0.830030     -0.302074     -1.213913
C       0.090750      0.021359     -0.031356
C       1.482475     -0.567938     -0.262508
C       0.056030      1.452682      0.363356
C      -0.479280     -0.584675      1.203061
O      -1.510085     -0.115248      1.817844
H      -0.882795     -1.374565     -1.417653
H      -1.841196      0.071493     -1.039927
H      -0.430596      0.206431     -2.094041
H       2.155817     -0.321743      0.561450
H       1.902348     -0.145717     -1.174931
H       1.446959     -1.658399     -0.366751
H       0.936692      1.850099      0.850443
H      -0.514203      2.138077     -0.254313
H      -0.062784     -1.476573      1.676246
H      -1.556587      0.812206      1.415219
