12
Extracted from Q-Chem output
C      -2.060792     -0.215786      0.126872
C      -0.421603     -0.337737      0.063152
C       0.418355      0.693410     -0.102039
N       1.811682      0.393735     -0.135964
C       2.302060     -0.804147     -0.019438
N      -0.765946     -1.517525      0.221466
H      -2.193033      0.446008      0.978942
H      -2.677008     -1.101307      0.265323
H      -2.281161      0.222185     -0.843217
H       0.094305      1.713411     -0.208499
H       2.384156      1.223348     -0.261149
H       3.398280     -0.709291     -0.085342
