13
Extracted from Q-Chem output
N       1.912770      0.683107     -0.130481
C       0.561388      0.384405     -0.100040
C      -0.059959     -0.816838      0.037568
O       0.591060     -1.990370      0.330873
C      -1.470893     -0.547704     -0.039800
C      -1.695785      0.855375     -0.303057
N      -0.410281      1.343136     -0.250051
H       2.476380     -0.128586      0.072830
H       2.182066      1.460741      0.452455
H       0.388175     -2.643582     -0.341007
H      -2.260274     -1.282959     -0.124355
H      -1.921996      0.213220      0.872719
H      -0.206926      2.320441     -0.362383
