12
Extracted from Q-Chem output
N      -2.117342      0.280609     -0.235260
C      -0.747311      0.061664     -0.036885
C       0.238792      1.013697     -0.041146
N       1.451065      0.409867      0.121153
C       1.224883     -0.960400      0.177787
C      -0.191578     -1.244941      0.194430
H      -2.482424      1.099642      0.224316
H      -2.645538     -0.538288      0.024278
H       0.174769      2.083773     -0.183618
H       2.339722      0.868219      0.041293
H       2.008570     -1.619916      0.525749
H       0.809500     -1.414278     -0.854536
