8
Extracted from Q-Chem output
N       0.146780      0.683546     -0.190509
C       1.359797      0.233564     -0.211370
N       0.220005     -2.130284      0.183427
N      -0.645007     -1.387531      0.141749
C      -0.998004     -0.154862     -0.000015
H      -0.103440      1.659137     -0.306066
H       2.042282      1.077634     -0.373454
H      -2.006683      0.205482      0.021035
