17
Extracted from Q-Chem output
O       2.231425      0.341686     -0.360097
C       1.477632     -0.508897      0.400422
C       0.063364     -0.274972      0.497396
C      -0.503051      1.137302      0.679824
C      -1.820113      1.025445     -0.088975
O      -1.431945      0.323218     -1.264288
C      -0.526390     -0.623997     -0.903827
H       3.105958     -0.027936     -0.482524
H       0.815484     -2.233528     -0.311367
H       2.007367     -1.090926      1.143042
H      -0.358205     -0.939253      1.251488
H      -0.631850      1.399477      1.729858
H       0.143625      1.874750      0.202692
H      -2.261583      1.973602     -0.393040
H      -2.561028      0.446507      0.474866
H       0.162242     -0.794900     -1.729327
H       0.013399     -2.247531     -0.556262
