10
Extracted from Q-Chem output
O       1.679081     -0.268966      0.003906
C       0.392707      0.171487     -0.352624
C      -0.600823     -0.754091      0.317070
N      -1.569954     -1.210590     -0.339593
N       0.001509      2.642962      0.441814
C       0.157513      1.561082      0.095108
H       2.337096      0.324412     -0.365232
H      -0.386909     -0.966300      1.369251
H      -2.157434     -1.809651      0.236278
H       0.213891      0.129429     -1.431979
