16
Extracted from Q-Chem output
C       1.881783     -0.047463     -1.478419
N       0.669096     -0.617199     -0.919125
C       0.460267     -0.289906      0.468405
O       0.071418      1.042168      0.610304
C      -1.318448      1.048049      0.327256
C      -1.784103     -0.316070      0.848974
O      -0.583370     -1.072157      0.969335
H       1.986438     -0.364853     -2.515721
H       1.808471      1.040417     -1.466556
H       2.794532     -0.332369     -0.933923
H       1.352379     -0.436311      1.093380
H      -1.767335      1.890804      0.850318
H      -1.490806      1.145652     -0.747303
H      -2.247329     -0.251549      1.835716
H      -2.472408     -0.809065      0.159806
H       0.649252     -1.622870     -1.017200
