16
Extracted from Q-Chem output
C       2.085202     -0.343710     -1.446766
N       0.859296      0.218677     -0.908106
C       0.794428      0.485019      0.382890
O      -0.167709      1.053596      1.021095
C      -1.519927      0.858084      0.551175
C      -1.790350     -0.656149      0.682899
O      -0.741817     -1.332416      0.175643
H       2.101748     -1.428122     -1.317250
H       2.150553     -0.108624     -2.507837
H       2.950433      0.093448     -0.948236
H       1.720235      0.480214      0.955154
H      -2.132358      1.499939      1.182199
H      -1.576286      1.188343     -0.490348
H      -1.984387     -0.874431      1.753456
H      -2.752489     -0.821650      0.157559
H       0.001803     -0.311242     -1.151783
