11
Extracted from Q-Chem output
O       2.167352     -0.171567     -0.332691
C       0.847975     -0.063741     -0.118707
C      -0.046042     -1.023141     -0.401132
N      -1.333282     -0.476662     -0.009113
C      -1.159998      0.961895      0.564990
C       0.179035      1.101343      0.449723
H       2.599105      0.637525     -0.051001
H       0.058845     -2.007749     -0.822649
H      -1.992777     -0.390339     -0.779442
H      -1.799183     -1.011388      0.720845
H       0.711691      1.995182      0.752441
