12
Extracted from Q-Chem output
C      -1.709745     -0.233547     -0.200739
N      -0.574080     -0.406191      0.686646
C       0.691728     -0.065198      0.263811
O       0.870886     -0.398437     -1.038541
C       1.646127      0.477838      1.030173
H      -1.559088     -0.807354     -1.112316
H      -1.887638      0.813572     -0.475311
H      -2.598723     -0.619978      0.296685
H      -0.743868     -0.120068      1.635673
H       1.735821     -0.088752     -1.313585
H       2.657387      0.590543      0.664927
H       1.437427      0.769556      2.048734
