12
Extracted from Q-Chem output
C      -1.803977     -0.283268     -0.186605
N      -0.637494      0.030822      0.611736
C       0.606652     -0.013465      0.156948
O       0.866053     -0.439696     -1.035570
C       1.828998      0.448811      0.751601
H      -1.537137     -0.189467     -1.237393
H      -2.609877      0.413333      0.045576
H      -2.149296     -1.303239     -0.007197
H      -0.757143      0.266388      1.580154
H       1.902872      0.121884     -0.733704
H       2.460211     -0.386310      1.051708
H       1.796370      1.246190      1.488900
