14
Extracted from Q-Chem output
C      -1.461672     -0.521886      0.253423
C      -0.503918      0.095020     -0.761663
C       0.387335      1.207571     -0.163851
O       1.437069      0.736280      0.710654
C       1.627237     -0.586959      0.682143
N       1.262129     -1.284775     -0.319513
C       0.590060     -0.798099     -1.336775
H      -0.939829     -0.947784      1.111163
H      -2.161699      0.229769      0.623620
H      -1.074249      0.552808     -1.571108
H      -0.231843      1.861962      0.449221
H       0.869567      1.795608     -0.945440
H       2.147903     -0.987411      1.542198
H      -2.041178     -1.319418     -0.213766
