14
Extracted from Q-Chem output
C      -1.558734     -0.390127      0.101056
C      -0.495967      0.338908     -0.700326
C       0.473205      1.247753      0.029976
O       1.786231      0.672200      0.124241
C       1.772615     -0.624972      0.469413
N       0.859412     -1.470936      0.204034
C      -0.068358     -1.088100     -0.786674
H      -1.463616     -0.313608      1.178707
H      -2.567661     -0.320270     -0.293908
H      -0.865819      0.754491     -1.632204
H       0.140084      1.462918      1.048698
H       0.606177      2.189208     -0.497015
H       2.667297     -0.918594      1.011347
H      -1.314256     -1.527922     -0.239262
