13
Extracted from Q-Chem output
C       1.418845     -0.545833     -0.258276
C      -0.161845      0.143336      0.640585
C      -0.409075      1.418205      0.015171
N       0.171103      0.510646     -0.971711
C      -1.213588     -0.828014      0.832094
O      -2.224354     -0.617663      1.469886
H       1.681838     -0.899831     -1.259845
H       2.167105      0.149497      0.100061
H       1.365826     -1.416527      0.394318
H      -1.448488      1.642180     -0.206112
H       0.199974      2.288411      0.242484
H      -0.545437      0.036087     -1.512942
H      -1.004674     -1.848777      0.439978
