14
smiles: [C:1]([H:7])([H:8])([H:9])[H:11].[C:2](=[O:3])([C@@:4]1([H:12])[C:5]([H:13])([H:14])[O:6]1)[H:10]
C        1.89288700      -1.03656500       0.85501200
C       -0.43571200       1.77639600      -0.33866500
O        0.65116200       2.27571400      -0.40948200
C       -0.78621500       0.47059700      -0.96669000
C       -1.59066700      -0.47788700      -0.18831800
O       -2.16717000       0.28011000      -1.22451700
H        1.56223100      -1.77904900       0.13035300
H        2.82235700      -1.36871100       1.31500100
H        1.13087500      -0.91295600       1.62302700
H       -1.27251300       2.25318000       0.21360200
H        2.05603800      -0.08524500       0.35082200
H       -0.09657400       0.10359100      -1.72081700
H       -1.90844100      -0.21400000       0.81716500
H       -1.47062800      -1.53850800      -0.38574900
