8
Extracted from Q-Chem output
O      -0.282542      1.347358     -0.159997
C      -1.251359      0.823338      0.457469
C       0.278594     -1.054606      0.119308
C       0.705024      0.184970     -0.389258
N       1.773760     -0.002803     -0.895203
H      -1.991013      1.622217      0.644724
H      -0.176370     -1.776966     -0.545955
H       0.657879     -1.402121      1.071524
