14
Extracted from Q-Chem output
N       1.534319     -1.979876     -0.110332
C       0.708502     -1.075234     -0.362415
O       1.365990      0.808718     -1.254113
C       0.405716      1.609972     -0.933000
C      -0.892771      0.713322     -0.308373
C      -1.249663     -0.492251     -0.870593
C      -0.437516     -0.555973      0.373659
H       2.092202     -2.250225     -0.912675
H      -0.082385      2.145462     -1.765352
H       0.600463      2.281947     -0.081948
H      -1.619201      1.401688      0.098780
H       0.405128     -0.731619     -1.469277
H      -1.980373     -1.029540     -1.451302
H      -0.751286     -0.888522      1.352865
