16
Extracted from Q-Chem output
C       1.905685     -0.530544      0.618197
O       0.668749     -0.354435      1.259550
C      -1.639810      0.722578     -0.184476
C      -0.868451      1.903434     -0.570751
C      -0.982883     -0.542469     -0.575157
C      -0.377004     -1.124726      0.725681
H       2.206309     -1.586279      0.619582
H       1.893848     -0.174828     -0.419217
H       2.641189      0.047760      1.175452
H      -1.335487      2.086259     -1.559223
H      -1.077933      2.792779      0.022947
H       0.207643      1.770644     -0.748121
H      -1.726781     -1.275188     -0.900045
H      -0.194072     -0.461461     -1.339519
H      -0.031657     -2.144733      0.514239
H      -1.150495     -1.172159      1.492397
