16
Extracted from Q-Chem output
C       1.715671     -0.146351      0.502618
O       0.382358     -0.132348      1.033294
C      -0.701638      0.411535      0.146486
C      -0.486325      1.781460     -0.396227
C      -0.954726     -0.775484     -0.695410
C      -0.793443     -1.499933      0.584047
H       2.350282     -0.680178      1.209119
H       1.756775     -0.636691     -0.474660
H       2.064791      0.881457      0.403569
H      -1.396962      2.090096     -0.914914
H      -0.313238      2.513941      0.395753
H       0.337001      1.863871     -1.129052
H      -1.976970     -0.807109     -1.076147
H      -0.245573     -1.073582     -1.487537
H      -0.044569     -2.277555      0.728322
H      -1.627716     -1.512422      1.268017
