21
Extracted from Q-Chem output
C      -3.230593      0.196435      0.747182
C      -2.134240      0.073634     -0.303026
C      -0.774064     -0.261272      0.296206
C       0.340928     -0.367000     -0.739080
C       1.679348     -0.722547     -0.129858
C       2.887230     -0.280820     -0.704568
O       3.158352      1.084717      0.559942
H      -4.194483      0.440567      0.296726
H      -2.994247      0.979911      1.471411
H      -3.349015     -0.738020      1.301523
H      -2.408124     -0.695539     -1.033193
H      -2.059503      1.011168     -0.864572
H      -0.501639      0.499832      1.035562
H      -0.844224     -1.206748      0.847395
H       0.427375      0.588292     -1.269023
H       0.051613     -1.108575     -1.494989
H       2.183126      0.295008      0.700488
H       1.724579     -1.665162      0.411140
H       3.807773     -0.833221     -0.556241
H       2.887628      0.379268     -1.563873
H       3.896345      0.934591      1.163242
