17
smiles: [C:1]([C@@:2]1([H:11])[O:3][C:4]([H:12])([H:13])[C:5]([H:14])([H:15])[C:6]1=[O:7])([H:8])([H:9])[H:10].[H:16][H:17]
C        1.78427300       0.38261200      -1.10919700
C        0.89654700       0.03227400       0.07602900
O        0.24779700       1.16023300       0.63445500
C       -1.05546500       1.26756200       0.07239000
C       -1.53346200      -0.16551400      -0.11046000
C       -0.23143200      -0.90929000      -0.33726800
O       -0.09267400      -2.01690300      -0.77403000
H        2.57072000       1.06824300      -0.79499200
H        1.20914500       0.86026900      -1.90525600
H        2.23742800      -0.52428800      -1.51141900
H        1.48912200      -0.43993200       0.86401000
H       -1.01850700       1.79587300      -0.88892000
H       -1.66153300       1.85422900       0.76069600
H       -1.98463700      -0.55538100       0.80573500
H       -2.22796800      -0.32822300      -0.93274600
H       -0.35733900      -1.75612600       2.83523500
H       -0.22051900      -2.27169500       2.31577500
