17
Extracted from Q-Chem output
C       1.771747     -0.093983     -1.032735
C       0.910830      0.202253      0.177778
O       0.243667      1.446436      0.026267
C      -1.151801      1.299163      0.254574
C      -1.466110     -0.140900     -0.102759
C      -0.199028     -0.858182      0.320644
O       0.027380     -2.130700      0.070263
H       2.514941      0.694480     -1.150584
H       1.166033     -0.134746     -1.939155
H       2.273543     -1.053203     -0.909040
H       1.529834      0.223658      1.080710
H      -1.671832      2.028465     -0.365666
H      -1.392249      1.507901      1.305594
H      -2.364451     -0.555562      0.348395
H      -1.523683     -0.281001     -1.186619
H      -0.391885     -0.805953      1.753831
H      -0.215586     -1.673354      1.346891
