13
smiles: [C:1]([N:4]=[C:2]=[O:3])([H:7])([H:8])[H:9].[C:5](=[C:6]([H:12])[H:13])([H:10])[H:11]
C        1.76812300      -0.29618500       0.24551200
C        1.44380500       1.89529200      -0.85473100
O        1.61113400       2.93879400      -1.35174300
N        1.15273100       0.84662300      -0.36503700
C       -1.93299400      -0.88143600      -0.37538700
C       -1.98289400      -0.27466600       0.79788100
H        2.41729700      -0.81280800      -0.46326200
H        2.35601400      -0.00385200       1.11703600
H        0.99154500      -0.98733300       0.56708900
H       -2.58421300      -1.71498000      -0.61270700
H       -1.23886500      -0.57056300      -1.14784500
H       -2.67702300      -0.58556500       1.57033200
H       -1.33168100       0.55887500       1.03522000
