13
Extracted from Q-Chem output
C       2.243627     -0.150430     -0.034879
C       0.749186      0.499765     -0.281748
O       0.578961      1.570317     -0.799214
N       0.262560     -0.541181      0.253001
C      -1.945689     -0.415356     -0.447278
C      -1.884621      0.180718      0.748925
H       2.637862     -0.183854     -1.048316
H       2.717691      0.620330      0.569145
H       2.341592     -1.119340      0.442473
H      -2.130218     -1.477971     -0.540706
H      -1.844565      0.156546     -1.361845
H      -2.016411     -0.378394      1.666366
H      -1.730841      1.249970      0.832295
