10
Extracted from Q-Chem output
C       0.626349      0.871199      0.059622
C       1.138888     -0.498942     -0.135798
N       0.893541     -1.492288      0.799105
N      -0.246524     -1.310485      0.112935
C      -1.217238     -0.447410     -0.064926
C      -0.721483      0.894665      0.017982
H       1.283916      1.724117      0.144255
H       1.823232     -0.711989     -0.963032
H      -2.240669     -0.789379     -0.109817
H      -1.358622      1.759949      0.143074
