9
smiles: [C-:4]#[O+:5].[C:1]([C:2][O:3][H:9])([H:6])([H:7])[H:8]
C        1.57979100      -0.12814500       0.49722700
C        0.17791400      -0.09679900      -0.00446200
O       -0.37981300       1.01249600       0.41829500
C       -2.65176700      -0.17150100      -1.05032800
O       -3.10841100      -1.00505800      -1.64930600
H        1.88160000       0.73730500       1.09568600
H        2.23531400      -0.24362500      -0.37074000
H        1.69873800      -1.05226200       1.07041600
H       -1.28700000       1.03468300       0.09466900
