15
Extracted from Q-Chem output
C      -1.027896     -1.209781     -0.884207
C      -0.368588     -0.300112      0.129970
C      -1.288286      0.696058      0.817260
C       0.770388     -0.679033      0.772044
C       2.000894     -0.594447      1.076122
C       2.541687      0.375504      0.142687
O       1.816961      1.183365     -0.484348
H      -1.497040     -0.615625     -1.671055
H      -0.309412     -1.886233     -1.345700
H      -1.812685     -1.810581     -0.416400
H       0.714295      0.643624     -0.374030
H      -2.052518      0.174786      1.399738
H      -0.738248      1.353138      1.490672
H      -1.801273      1.309430      0.073506
H       3.611871      0.427758     -0.065735
