12
Extracted from Q-Chem output
C      -1.288226      0.320458      0.851366
N       0.026079      0.576307      0.286244
C       0.183352      0.290389     -1.407254
C       0.753304     -0.527971     -0.306607
C       2.191678     -0.560568     -0.070520
N       3.322779     -0.615117      0.107348
H      -1.192265      0.188277      1.929769
H      -1.752269     -0.569233      0.414429
H      -1.932036      1.178036      0.659805
H       0.174350      1.368151     -0.504252
H      -0.792746     -0.124000     -1.681935
H       0.289382     -1.485397     -0.085320
