12
Extracted from Q-Chem output
C       1.544274     -0.280106      0.298227
C       0.486691      0.735748     -0.008104
C       0.602062      1.922627     -0.514003
C      -0.985803      0.445831      0.267400
C      -1.461582     -0.668645     -0.637297
O      -1.866263     -1.723381     -0.240483
H       1.538389     -0.511066      1.365113
H       2.532663      0.084085      0.024422
H       1.351263     -1.206627     -0.246088
H      -1.593317      1.333801      0.057339
H      -1.123633      0.166447      1.313487
H      -1.394887     -0.444115     -1.721848
