12
Extracted from Q-Chem output
C       1.720452     -0.267848      0.536069
C       0.752043      0.607152     -0.128905
C       0.143046      1.410745     -0.879954
C      -0.989141      0.459257      0.153259
C      -1.655391     -0.451390     -0.840844
O      -1.576304     -1.648037     -0.780331
H       1.756569     -0.090565      1.611890
H       2.705028     -0.061881      0.116389
H       1.479736     -1.316136      0.351470
H      -1.592704      1.319934      0.428154
H      -0.776619     -0.103825      1.067340
H      -2.196710      0.055167     -1.660521
