12
Extracted from Q-Chem output
N       0.911840     -0.276292      0.902807
C       0.746565     -0.553734     -1.959992
O       1.682117     -1.127675     -2.350812
N      -0.282909      0.021709     -1.722262
C      -0.516508     -0.086950      0.729406
C      -0.796060      0.685559     -0.553261
H       1.365222      0.557646      1.249135
H       1.123822     -1.034619      1.532807
H      -0.985458     -1.070435      0.652803
H      -1.004572      0.442042      1.559775
H      -1.871763      0.815021     -0.679539
H      -0.356844      1.686992     -0.489007
