12
Extracted from Q-Chem output
N       1.201799     -0.298378      0.474491
C       0.892172     -0.586029     -0.930716
O       1.647554     -1.301428     -1.551673
N      -0.261010     -0.074231     -1.381641
C      -1.072479     -0.109129      0.594674
C      -0.997646      0.825824     -0.504044
H       1.503578      0.662313      0.599251
H       1.948719     -0.910576      0.779364
H      -1.578551     -1.045331      0.397097
H      -0.784854      0.088148      1.615136
H      -1.964185      1.029535     -0.967552
H      -0.519644      1.778543     -0.252531
