16
Extracted from Q-Chem output
C       0.709638      0.940384      0.998845
C       0.400523      0.328852     -0.775356
C       1.259242     -0.857694     -1.048820
C      -0.757897     -0.330137      0.963147
O      -1.924225      0.282579      0.543928
C      -1.902251      0.367959     -0.837107
N      -0.779969      0.383037     -1.400254
H       1.632068      1.346111      0.593158
H       1.030577      0.412118      1.906809
H       0.069394      1.778366      1.263648
H       2.194755     -0.820438     -0.489116
H       0.772309     -1.830276     -0.857650
H       1.504390     -0.834252     -2.112722
H      -0.618976     -1.341945      0.558058
H      -0.767274     -0.324297      2.044887
H      -2.863088      0.479152     -1.315331
