12
Extracted from Q-Chem output
C       1.657430      0.815397     -0.102944
C       0.489217     -0.916268     -0.045675
C       0.508593      0.548713      0.686205
C      -0.969026      0.695845      0.258640
O      -1.048879      0.548418     -1.144820
C      -0.986579     -0.621832     -0.351610
H       1.307112      1.143266     -1.096995
H       1.120269     -1.090184     -0.918730
H       0.682938     -1.678722      0.702135
H       0.635803      0.415887      1.759940
H      -1.747959      1.250154      0.763229
H      -1.777280     -1.351691     -0.464000
