12
Extracted from Q-Chem output
C       1.552502      0.486946     -0.259564
C       0.436765     -0.856134      0.014053
C       0.501810      0.468221      0.757095
C      -0.982786      0.724220      0.307482
O      -1.031430      0.701272     -1.107355
C      -1.017763     -0.530452     -0.419828
H       1.166388      0.910970     -1.190335
H       1.473969     -0.789915     -0.669232
H       0.687578     -1.763019      0.551745
H       0.733611      0.501775      1.815126
H      -1.753949      1.260930      0.840214
H      -1.804092     -1.244424     -0.619543
