10
Extracted from Q-Chem output
O       2.151818      0.430629      0.104556
C       0.983696     -0.259528      0.410102
C      -0.230834      0.495015     -0.086645
O      -0.116107      1.545930     -0.680168
C      -1.579668      0.004589      0.278174
O      -2.036047     -0.777593     -0.648144
H       1.880883      1.223257     -0.380576
H       0.973066     -1.254190     -0.059356
H       0.883456     -0.411740      1.491721
H      -2.929151     -1.061084     -0.413563
