15
Extracted from Q-Chem output
C       2.564292     -0.439180     -0.055898
N       1.293434      0.076700     -0.119842
C       0.830703      1.330854     -0.207230
C      -0.574293      1.310300     -0.050825
C      -0.941886      0.010025      0.103894
C      -2.261357     -0.652866      0.274892
N       0.217891     -0.729870      0.017484
H       3.326872      0.295362     -0.268460
H       2.661868     -1.411890     -0.520576
H       0.385151     -1.648056      0.388305
H       1.511083      2.143581     -0.387420
H      -1.231747      2.162850     -0.083566
H      -2.487728     -1.321470     -0.559623
H      -3.045342      0.100626      0.326402
H      -2.303969     -1.241171      1.195572
