15
Extracted from Q-Chem output
C       2.408644     -0.756021     -0.093392
N       1.219537      0.110936     -0.135344
C       0.776682      1.347311     -0.332248
C      -0.609404      1.326721     -0.190001
C      -0.955026      0.005930      0.101357
C      -2.284625     -0.616558      0.350540
N       0.186754     -0.688651      0.124112
H       3.091873     -0.401717      0.680616
H       2.902441     -0.742076     -1.066865
H       0.931757     -1.582943      0.219565
H       1.452955      2.154124     -0.559609
H      -1.287248      2.159480     -0.287753
H      -2.481349     -1.415973     -0.365232
H      -3.072066      0.128907      0.254229
H      -2.335956     -1.043675      1.353136
