15
smiles: [C:1]([C:2](=[C:3]([H:11])[H:12])[C:4]#[N:5])([H:8])([H:9])[H:10].[C:6](=[N:7][H:15])([H:13])[H:14]
C       -0.44095100       1.26497800      -1.08548300
C        0.97007300       1.11007200      -0.59621600
C        2.05338500       1.17935000      -1.36242200
C        1.12533600       0.87092700       0.81630300
N        1.21696300       0.68048000       1.94539100
C       -1.63603100      -2.59042000       1.36817100
N       -1.24912100      -1.45477000       0.98161000
H       -0.92749900       2.10882600      -0.59281900
H       -0.45434400       1.43151700      -2.16169300
H       -1.02766900       0.37273800      -0.85947600
H        1.96357100       1.35788700      -2.42698000
H        3.04713900       1.06223200      -0.95102600
H       -1.36983500      -3.04395800       2.32836100
H       -2.28075000      -3.17926000       0.71485400
H       -0.65543400      -1.01327500       1.68251600
