15
Extracted from Q-Chem output
C      -0.804931      1.215937     -0.333688
C       0.198135      0.119343     -0.050333
C       1.335138      0.023226     -0.908441
C       1.422471      0.568067      0.710648
N       2.127222      0.937200      1.565023
C      -0.444992     -1.305430      0.651488
N      -1.376076     -1.630291     -0.256750
H      -0.293676      2.169162     -0.472353
H      -1.362517      0.984324     -1.238944
H      -1.501828      1.319794      0.497755
H       1.466410      0.680983     -1.763090
H       1.990690     -0.836330     -0.841060
H      -0.725379     -0.980256      1.661683
H       0.434234     -1.955747      0.681871
H      -2.274201     -1.236520      0.015280
