14
Extracted from Q-Chem output
O       1.738263     -1.514164      0.173869
C       0.958095     -0.552085     -0.522484
C      -0.359170     -1.135852     -0.998219
C      -1.453639      1.794761      0.977253
C      -0.320896      1.241962      0.658397
C       0.810027      0.691152      0.325745
H       1.279141     -1.732693      0.988897
H       1.569942     -0.293609     -1.391731
H      -0.168286     -2.034581     -1.584587
H      -0.995922     -1.401448     -0.150399
H      -1.890075      2.571636      0.360192
H      -1.990308      1.496041      1.870196
H      -0.907408     -0.422548     -1.615348
H       1.735818      1.122952      0.695765
