14
Extracted from Q-Chem output
O       1.020134     -1.352810      0.981746
C       0.812030     -0.620734     -0.222646
C      -0.636846     -0.761727     -0.620462
C      -1.268615      0.815408      0.227828
C       0.017354      1.709380      0.298939
C       1.055669      0.899157      0.021373
H       1.589432     -0.832322      1.551788
H       1.475256     -1.010432     -1.000611
H      -0.826306     -0.798727     -1.692876
H      -1.192902     -1.520690     -0.085258
H      -2.197572      1.204597     -0.174505
H      -1.370187      0.328995      1.188395
H      -0.579493      0.679120     -0.680382
H       2.092247      1.214431      0.097032
