10
Extracted from Q-Chem output
O       2.292592     -0.719324      0.246411
C       1.043673     -0.287996      0.112257
N       0.866729      1.029823      0.091794
N      -0.355484      1.491921     -0.038608
C      -1.351303      0.631081     -0.143720
C      -1.114532     -0.740639     -0.117909
N       0.103329     -1.220622      0.012000
H       2.856077      0.061793      0.305569
H      -2.344223      1.048370     -0.248996
H      -1.925596     -1.457188     -0.205611
