12
Extracted from Q-Chem output
C      -1.165609      0.811533     -0.253481
C      -0.532746     -0.476145      0.190514
N       0.052131     -1.399316     -0.765354
C       0.942302     -0.681282      0.151097
C       1.783313      0.373589     -0.360758
N       2.452249      1.208130     -0.778285
H      -0.574002      1.307011     -1.025393
H      -2.163519      0.620886     -0.652392
H      -1.264549      1.499970      0.587188
H      -1.043572     -0.983727      1.002912
H       0.090591     -0.981630     -1.689354
H       1.423412     -1.299020      0.899653
