9
Extracted from Q-Chem output
O      -2.528106      0.367215     -0.107286
C      -1.334780      0.349603     -0.199873
C      -0.509277     -0.678276      0.525596
N       0.746936     -0.738635      0.486792
C       1.582989      0.162854     -0.167186
O       1.873549      1.245889      0.256108
H      -1.070683     -1.412357      1.103544
H      -0.776599      1.072283     -0.824061
H       2.038408     -0.276394     -1.072249
