9
Extracted from Q-Chem output
O      -1.679603      1.410650      0.511241
C      -0.879530      0.602496      0.131426
C      -0.493734     -0.788140      0.320926
N       0.792655     -1.074391      0.170234
C       1.383432      0.089724     -0.087431
O       0.671618      1.128829     -0.202502
H      -1.254261     -1.553280      0.416538
H      -0.979610      0.092158     -0.991734
H       2.453836      0.155485     -0.260638
