16
Extracted from Q-Chem output
C       2.295029     -0.561240     -1.168481
N       1.094627     -0.076649     -0.537173
C       1.049379      1.017377      0.185358
O       0.030242      1.485533      0.718931
C      -1.979399      0.629995      0.756463
C      -2.125546     -0.750302      0.317167
O      -1.387269     -0.577005     -0.828589
H       2.511899     -1.583961     -0.854800
H       2.192186     -0.550770     -2.255383
H       3.144806      0.068488     -0.896970
H       2.004854      1.548406      0.322228
H      -1.687299      0.935474      1.749651
H      -2.375658      1.388862      0.097545
H      -1.706824     -1.468748      1.040035
H      -3.182939     -1.028369      0.151969
H       0.120816     -0.486072     -0.717437
