14
Extracted from Q-Chem output
C       1.173463     -0.196505     -0.851430
C      -0.073087     -0.988990     -1.110281
C      -1.107490     -0.235365     -0.445212
C      -0.583836     -0.856429      0.941546
N       0.031316      0.423343      1.330060
C       0.842941      0.866407      0.175756
C      -0.604136      1.093697      0.169632
H       1.366479      0.285553     -1.820718
H       2.047525     -0.812051     -0.634346
H       0.077781     -1.727130      0.926682
H      -2.153695     -0.401117     -0.676220
H      -1.451830     -1.083496      1.555118
H       1.536419      1.659143      0.421866
H      -1.126356      2.036981      0.250271
