16
Extracted from Q-Chem output
O       2.648247      0.208126      0.264050
C       1.510888     -0.579545      0.561917
C       0.327762     -0.256147     -0.320116
C      -1.018841     -0.951724     -0.026717
C      -1.731078      0.380147     -0.341224
C      -0.384745      1.104479     -0.133068
H       2.414836      1.130843      0.384584
H       1.818207     -1.618120      0.417805
H       1.224822     -0.465725      1.618214
H       0.611900     -0.392485     -1.367037
H      -1.106624     -1.211825      1.031383
H      -1.279558     -1.826011     -0.622954
H      -2.053773      0.426482     -1.382283
H      -2.566416      0.671117      0.295222
H      -0.282931      1.465591      0.894833
H      -0.132695      1.914796     -0.817566
