14
smiles: [C-:2]12[C@@:3]3([H:10])[C@@:4]4([H:11])[C:5]([H:12])([H:13])[C@:6]1([H:14])[N+:7]234.[O:1]([H:8])[H:9]
O        3.03364800      -1.51492800      -0.38143900
C        0.70291000       0.26364200      -0.54430100
C       -0.06802400       1.43654600      -0.23334500
C       -1.36518800       1.03101400       0.30888200
C       -1.75997200      -0.30708000      -0.25623400
C       -0.30231000      -0.68079400      -0.01364600
N       -0.14808400       0.47054800       1.02813700
H        3.66919800      -1.19702500       0.26098800
H        2.42117800      -0.79041100      -0.51427200
H        0.33650000       2.43467500      -0.13412900
H       -1.99468200       1.74480600       0.82510600
H       -2.14652500      -0.35307300      -1.27498400
H       -2.42107500      -0.84116700       0.42680300
H        0.00916500      -1.68436300       0.25130600
