13
smiles: [C:1]([C:4]([C:2](=[O:3])[H:9])([H:11])[H:12])([H:6])([H:7])[H:8].[O:5]([H:10])[H:13]
C       -1.53789000       0.79032700       0.63238700
C       -0.26881800      -1.23947700      -0.11516100
O        0.54164400      -1.54064900      -0.94688300
C       -0.22685000       0.01184700       0.71717700
O        2.53870900       0.48800300      -1.13376800
H       -1.51265700       1.66275100       1.28532600
H       -2.38702300       0.17326900       0.93475700
H       -1.72206300       1.13867400      -0.38538800
H       -1.13709700      -1.90616600       0.08607400
H        1.98836300      -0.29286000      -1.20555300
H        0.62597700       0.61237900       0.39844600
H       -0.05080700      -0.29878100       1.75365900
H        3.04850800       0.51578400      -1.94447000
