13
Extracted from Q-Chem output
C      -1.605558      0.347248      0.388291
C      -0.340744     -0.574663     -0.235817
O      -0.169842     -0.502025     -1.521046
C       0.510664      0.241719      0.570200
O       2.204854     -0.431504     -0.529713
H      -1.567997      1.379499      0.046291
H      -1.795682      0.277891      1.459202
H      -2.406964     -0.160601     -0.146204
H      -0.541545     -1.564300      0.215218
H       1.460017     -0.522894     -1.214234
H       0.733721      1.235801      0.207326
H       0.720474      0.015203      1.611115
H       2.782628      0.265799     -0.846026
