10
Extracted from Q-Chem output
N       1.627304      0.184229      0.111251
C       0.222197     -0.039637     -0.018780
C      -0.475742      0.931717      0.566439
N      -1.827060      0.544907      0.337496
C      -1.762068     -0.553362     -0.322108
O      -0.501251     -1.018849     -0.605161
H       2.145995     -0.464068      0.695769
H       2.140799      0.398249     -0.738199
H       1.116606      1.159782      0.699179
H      -2.570741     -1.169474     -0.688435
