13
Extracted from Q-Chem output
C       0.715453     -1.144710      0.159605
C       1.123450     -0.052794     -0.805206
C       0.523556      1.096366     -0.507450
C      -0.401121      0.880839      0.647873
N      -1.504983     -0.027507      0.248035
C      -0.310637     -0.534071      1.121638
H       1.578567     -1.492584      0.734580
H       0.324333     -2.034397     -0.345845
H       1.807253     -0.195923     -1.634604
H       0.659557      2.043448     -1.014807
H      -0.698754      1.712391      1.277841
H      -1.571095     -0.191718     -0.749441
H      -2.384679      0.009013      0.735892
