16
Extracted from Q-Chem output
N       0.824029      0.870334      0.664304
C       1.716220      0.149877     -0.070141
C       0.990830     -1.101070     -0.542403
C      -0.300352     -1.122599      0.274982
C      -0.531127      0.348661      0.676246
C      -1.453897      1.097895     -0.277819
O       2.858999      0.464884     -0.306739
H       1.058207      1.802754      0.959301
H       0.811038     -0.990815     -1.614532
H       1.622617     -1.976786     -0.407218
H      -0.163020     -1.726769      1.172904
H      -1.153314     -1.527428     -0.269432
H      -2.466390      0.691983     -0.228967
H      -0.939480      0.408145      1.688625
H      -1.504042      2.158735     -0.023913
H      -1.098227      1.014673     -1.307651
