12
Extracted from Q-Chem output
O       1.629408     -0.235870     -0.906295
C       0.906031      0.337762      0.140779
C      -0.420179      0.902404     -0.258054
C      -1.120786     -0.251732     -0.681343
C      -0.230312     -0.449686      0.837055
O      -0.782314      0.402615      1.686323
H       2.262210     -0.850795     -0.530065
H       1.488706      0.946394      0.828666
H      -0.797504      1.901862     -0.082808
H      -2.202961     -0.255233     -0.677350
H      -0.613562     -0.909606     -1.376193
H      -0.112466     -1.531253      1.034555
