13
smiles: [C:1]([C:2]([O-:3])=[C+:4][H:10])([H:7])([H:8])[H:9].[C:5](=[N:6][H:13])([H:11])[H:12]
C        1.99399900      -0.22676400      -0.28532900
C        1.23008500      -0.13919200       0.97366600
O        0.61054500       0.85406100       1.44270500
C        0.93116700      -0.81812200       2.11325600
C       -2.54231400       0.42307900      -1.15231800
N       -1.35669000       0.25289600      -0.75970900
H        2.67919600       0.61868000      -0.35518000
H        1.29129900      -0.15881400      -1.11820500
H        2.54346600      -1.16374500      -0.34661200
H       -0.02060800      -1.34481300       2.16112300
H       -3.26657400       1.08926300      -0.67260000
H       -2.89069900      -0.12217200      -2.03015500
H       -1.16037600       0.81842100       0.06514500
