13
Extracted from Q-Chem output
C       2.472612     -0.275538      0.510324
C       1.008023     -0.024482      0.322874
O       0.408731      0.957079      0.761241
C       0.142885     -0.970002     -0.269360
C      -2.750871      0.164802     -0.239537
N      -2.098603      0.840827     -1.084132
H       2.820364     -1.131508     -0.070701
H       2.662019     -0.466087      1.567812
H       3.018026      0.621725      0.217304
H      -0.066111     -0.806966     -1.332781
H      -2.642439      0.273817      0.843556
H      -3.465399     -0.580663     -0.590337
H      -1.466743      1.479777     -0.600474
