9
Extracted from Q-Chem output
N       3.243762     -0.034821      0.745265
C       2.200688      0.128939      0.280935
C       0.977112      0.418433     -0.402503
C      -1.404551      0.023483     -0.369055
N      -0.056824     -0.133611      0.151905
H      -1.349255      0.665526     -1.243995
H      -2.046779      0.476967      0.387225
H      -1.812770     -0.949228     -0.647318
H       0.016952     -0.710974      0.986256
