9
Extracted from Q-Chem output
N       2.613162     -0.440128     -0.356792
C       1.616142      0.081581     -0.108389
C       0.461491      0.889801      0.256459
C      -1.010610     -0.069010     -0.289538
N      -0.492563      0.185578      1.066407
H      -0.396978      0.710316     -0.936895
H      -2.017235      0.317658     -0.426847
H      -0.813697     -1.058921     -0.685787
H      -0.117815     -0.689694      1.424169
