9
Extracted from Q-Chem output
N      -2.328939     -0.788550      0.324959
C      -1.167711     -1.267527      0.104881
O      -0.516948     -2.287237     -0.039237
C       1.874181      1.541666     -0.207905
O       2.176305      2.063368     -1.221691
C      -0.161159     -0.027374     -0.017280
N       0.733516      0.696528     -0.112834
H      -3.007137     -1.540878      0.425100
H       2.391514      1.621961      0.754540
