9
Extracted from Q-Chem output
N      -2.062925     -1.087061      0.070843
C      -0.880376     -0.638433      0.074545
O       0.309095     -1.069313     -0.026228
C       1.562463      0.813145     -0.175887
O       1.947388      0.998604     -1.228942
C      -0.656089      0.849537      0.238009
N       0.020356      1.798209      0.302930
H      -2.046348     -2.097140     -0.055115
H       1.800056      0.444410      0.810377
