12
Extracted from Q-Chem output
C      -1.531886     -0.111553      0.085762
C      -0.222483      0.057877     -0.651191
C       0.846797      0.771395     -0.075330
O       1.866306     -0.774176      0.296858
H      -1.369401     -0.204202      1.163277
H      -2.051615     -1.015109     -0.238112
H      -2.214704      0.728535     -0.071699
H       0.728692     -0.886077     -0.253578
H      -0.272168      0.066424     -1.735984
H       0.773901      1.171071      0.931115
H       1.607946      1.229802     -0.692280
H       1.898752     -1.027317      1.227326
