13
Extracted from Q-Chem output
C       2.376040     -0.264011     -0.099995
C       1.016817     -0.759758     -0.315781
N       0.071922     -0.655884     -1.047991
C      -1.167712     -0.229387     -0.936793
C      -1.420060      0.335740      0.358965
O      -2.680913      0.733008      0.663295
N      -0.458361      0.431641      1.198111
H       3.050366     -0.880550     -0.699186
H       2.650283     -0.390170      0.944948
H       2.484300      0.782029     -0.392959
H      -1.899362     -0.414662     -1.706644
H      -3.269031      0.538425     -0.070372
H      -0.772319      0.772220      2.099506
