13
Extracted from Q-Chem output
N      -1.819326     -0.235217     -0.267655
C      -0.544012     -0.090832      0.127371
C       0.169267      1.213377      0.170082
C       1.387478      0.870723      0.570468
C       1.438361     -0.653528      0.715140
O       0.730245     -0.884810     -1.052774
N       0.061076     -0.902292      1.074614
H      -2.156481      0.391444     -0.976924
H      -2.196016     -1.166660     -0.312561
H      -0.265014      2.161896     -0.113599
H       2.244330      1.509350      0.728617
H       1.135583     -0.307040     -1.708982
H      -0.171766     -1.883954      0.993380
