7
Extracted from Q-Chem output
O       1.751949     -0.152103     -0.211551
C       0.575448     -0.195197      0.250426
N      -0.159244     -0.555224      1.272155
O      -1.439281     -0.185137      0.857989
N      -1.445901      0.362969     -0.345765
N      -0.248351      0.358100     -0.709460
H       0.862225      0.443621     -1.245030
