10
Extracted from Q-Chem output
O       2.545270     -0.527568      0.115003
C       1.423943     -0.117864     -0.023661
N       1.129746      1.131831     -0.620467
N      -0.064767      1.530669     -0.746497
C      -1.130762      0.782851     -0.318558
C      -0.939794     -0.421177      0.259536
N       0.324886     -0.860359      0.401426
H       0.532400     -1.750763      0.827031
H      -2.108377      1.212729     -0.471082
H      -1.738293     -1.058710      0.616549
