12
Extracted from Q-Chem output
C      -1.495269     -0.082943     -0.702516
O      -0.910962     -1.365438     -0.444377
C       0.373231     -1.625963     -0.231318
N       1.177420     -0.612265      0.104129
C       0.978325      0.760467      0.582078
H      -1.651149      0.493416      0.209176
H      -0.889991      0.484529     -1.409943
H      -2.462455     -0.292737     -1.154692
H       2.117781     -0.945033      0.223629
H       1.916342      1.097882      1.020181
H       0.714605      1.453502     -0.215526
H       0.217808      0.800183      1.360554
