12
Extracted from Q-Chem output
C      -1.842896      0.040374     -1.086207
O      -1.151739     -1.064682     -0.518201
C       0.009131     -0.785169      0.079867
N       0.502102      0.365862      0.158098
C       1.767941      0.507601      0.838769
H      -2.080804      0.779926     -0.320122
H      -1.235652      0.521189     -1.854635
H      -2.753078     -0.368896     -1.518279
H       0.457427     -1.697149      0.485682
H       2.165171     -0.438383      1.231330
H       2.504686      0.932966      0.154373
H       1.657712      1.206361      1.670370
