8
smiles: [C:5](#[N:6])[H:8].[O:1]([C:2]#[N+:3][O-:4])[H:7]
O        2.41752800      -1.29716500       0.60766100
C        1.24365400      -1.11239000       0.04591800
N        0.08632000      -1.14523800       0.05042000
O       -1.11006600      -1.11993100      -0.09810400
C       -1.90733000       1.85729000      -0.19909000
N       -1.99770000       2.99722800      -0.21471200
H        3.11273500      -1.03987300      -0.00529800
H       -1.82256600       0.79238200      -0.18448100
