10
Extracted from Q-Chem output
N       1.793978      0.442899     -0.284451
C       1.279192     -0.498039      0.370070
O      -0.046976     -0.669659      0.469278
C      -0.824919      0.291692     -0.225359
C      -2.235252     -0.023878     -0.003586
N      -3.350353     -0.239199      0.146742
H       2.805510      0.408950     -0.243081
H       1.790422     -1.281319      0.929801
H      -0.603476      0.269002     -1.294775
H      -0.608126      1.299552      0.135362
