11
Extracted from Q-Chem output
C      -0.917486     -0.090284     -0.057429
C      -0.379269     -0.304455     -1.446823
O       0.766896     -0.541871     -1.714371
C       1.506780      0.303949      0.771562
N       0.905549      1.350430      1.077820
C       0.108554      0.057742      1.037632
H      -1.580753      0.782727     -0.085496
H      -1.575421     -0.944135      0.144236
H      -1.139108     -0.244502     -2.253077
H       2.489430     -0.029597      0.474583
H      -0.187824     -0.333385      2.006878
