12
Extracted from Q-Chem output
N      -1.946625     -0.714166      0.674897
C      -0.680067     -0.408904      0.560377
N       0.517919     -0.906462      0.633783
C       1.241766     -0.111801     -0.251797
O       2.515372     -0.425454     -0.482718
C       0.548755      0.893185     -0.836510
N      -0.751085      0.864467     -0.187971
H      -2.239579     -1.582714      1.092459
H      -1.916624      0.317893     -0.249915
H       2.708465     -1.210782      0.039276
H       0.856857      1.685842     -1.491735
H      -0.855896      1.635484      0.470235
