15
Extracted from Q-Chem output
N       0.840338     -1.150879     -0.932068
C       1.582758     -0.767131      0.093048
O       2.688052     -1.115767      0.483794
C       0.888373      0.343140      0.930191
N      -0.441660      0.599278      0.423975
C      -1.745429     -0.024876      0.220936
C      -1.147201      1.131535     -0.471092
H       1.334868     -1.866702     -1.456854
H      -0.207457     -0.246615     -1.856478
H       0.809246      0.031408      1.969421
H       1.460365      1.268062      0.868224
H      -1.737784     -0.974362     -0.305347
H      -2.476293      0.127227      1.007534
H      -0.773012      0.251855     -2.195859
H      -1.195927      2.027836     -1.063803
