11
Extracted from Q-Chem output
C      -1.360166     -0.244800     -0.347892
C      -0.042525      0.247139      0.229241
O       0.482748     -0.749668      1.098911
C       1.120112      0.564067     -0.609502
C       2.197320     -0.220112     -0.251695
N       1.725783     -1.052799      0.699902
H      -2.068607     -0.460349      0.450330
H      -1.783332      0.523120     -0.994954
H      -1.195294     -1.149127     -0.932476
H      -0.200634      1.158425      0.826752
H       1.136796      1.403689     -1.292843
