19
smiles: [C:1]([O:2][C@@:3]([C:4]([H:12])([H:13])[H:14])([C:5]([O:7][H:19])([H:15])[H:16])[H:11])([H:8])([H:9])[H:10].[C:6]([H:17])[H:18]
C       -1.75003100      -0.54902200       1.31296600
O       -0.39463900      -0.23747100       1.11830400
C       -0.11537000       0.50424400      -0.05927900
C       -0.49132500       1.96958600       0.07979100
C        1.37115100       0.31836900      -0.30708100
C        0.81983200      -1.92871600      -1.46426600
O        1.71349700      -1.03932000      -0.43736100
H       -2.35437200       0.34204300       1.51723500
H       -1.80882000      -1.21057300       2.17638000
H       -2.16906400      -1.06408400       0.43936000
H       -0.66379900       0.04966900      -0.89777000
H        0.03212600       2.41613500       0.92746500
H       -1.56334000       2.09716100       0.23482300
H       -0.22269700       2.51929600      -0.82440700
H        1.92684300       0.79107900       0.51519700
H        1.65561400       0.81449200      -1.23693500
H        1.11248400      -2.93693400      -1.10395000
H        1.58716200      -1.72813800      -2.24063800
H        1.31845400      -1.48939500       0.31518900
