19
Extracted from Q-Chem output
C      -1.729334     -0.678368      1.174387
O      -0.399393     -0.243733      1.015964
C      -0.182165      0.558267     -0.141292
C      -0.371648      2.032324      0.193327
C       1.231458      0.294288     -0.599387
C       1.039571     -1.615384     -1.292658
O       1.857657     -1.240742     -0.017024
H      -2.419093      0.164752      1.291804
H      -1.764516     -1.283968      2.078873
H      -2.046040     -1.285592      0.319313
H      -0.866132      0.241127     -0.930978
H       0.284090      2.327580      1.013527
H      -1.403397      2.227838      0.489723
H      -0.153575      2.656284     -0.675902
H       1.942633      0.813102      0.061784
H       1.412645      0.590742     -1.623635
H       0.521770     -2.554660     -1.064062
H       1.824870     -1.837533     -2.018615
H       1.211613     -1.304478      0.704696
