15
Extracted from Q-Chem output
O      -1.193230      1.258592      0.421238
C      -1.804152      0.041961      0.727715
C      -1.094333     -1.112399      0.029880
O       0.279403     -1.002363      0.429393
C       1.143779     -0.513218     -0.407707
C       2.120484      0.364777      0.009414
C       1.788358      1.176620      1.098641
H      -0.330178      1.309186      0.890504
H      -2.843658      0.079265      0.389907
H      -1.804854     -0.152978      1.806770
H      -1.170762     -1.029510     -1.058024
H      -1.456735     -2.084797      0.364145
H       1.046919     -0.842206     -1.446669
H       2.964917      0.506787     -0.665531
H       2.597287      1.905442      1.266488
