15
Extracted from Q-Chem output
O      -2.588376      0.975956      0.422271
C      -2.182119     -0.313181      0.807081
C      -0.966256     -0.780107      0.042633
O       0.124552      0.071518      0.415517
C       1.173283      0.107531     -0.390310
C       2.402250      0.583747      0.029280
C       3.212451      1.427107      0.586134
H      -1.900813      1.597879      0.672277
H      -3.011587     -0.988219      0.588713
H      -1.977480     -0.368284      1.883065
H      -1.140571     -0.698379     -1.034246
H      -0.714093     -1.813768      0.299054
H       1.050485     -0.335964     -1.376446
H       2.583885     -0.589656     -0.170242
H       4.121277      1.053967      1.054706
