20
Extracted from Q-Chem output
C       2.535624     -0.610887     -0.219358
C       1.045722     -0.581715     -0.530482
C       0.416314      0.741517     -0.119366
N      -1.019902      0.794149     -0.447513
C      -1.308397      1.321416     -1.640591
C      -1.872546      0.276855      0.428121
C      -1.496774     -0.211612      1.787318
H       2.720808     -0.490330      0.850793
H       3.065397      0.190323     -0.740262
H       2.980249     -1.557346     -0.528870
H       0.875399     -0.728797     -1.599832
H       0.538329     -1.402174     -0.017774
H       0.894074      1.571432     -0.638141
H       0.534208      0.912595      0.950019
H      -2.334750      1.334495     -1.969587
H      -0.501037      1.661031     -2.263947
H      -2.910647      0.296724      0.128534
H      -2.383901     -0.640790      2.252839
H      -0.734655     -0.999287      1.787594
H      -1.143021      0.579664      2.461619
