13
Extracted from Q-Chem output
C      -2.065503      0.011508     -0.840640
N      -1.385633      0.094767      0.435030
C      -0.130993      0.040962      0.445509
O       0.568220      0.110674      1.593276
O       0.637587     -0.088314     -0.638081
C       2.053663     -0.122415     -0.487518
H      -3.133248      0.154950     -0.679512
H      -1.922094     -0.964741     -1.314860
H      -1.719502      0.773591     -1.546175
H      -0.092576      0.201282      2.288396
H       2.422606      0.800381     -0.039434
H       2.449410     -0.227738     -1.494778
H       2.361557     -0.971131      0.123366
