12
Extracted from Q-Chem output
N       2.081763      0.475255     -0.266825
C       0.789656      0.090369     -0.026805
C       0.333478     -1.161845      0.408425
N      -1.015302     -1.141833      0.450786
C      -1.320339      0.143298     -0.032077
O      -2.546047      0.661753      0.186296
N      -0.240038      0.900891     -0.288854
H       2.798769     -0.029151      0.222842
H       2.226015      1.469160     -0.314798
H       0.887389     -2.072993      0.569811
H      -1.439590     -0.910457     -0.784659
H      -2.531554      1.559530     -0.157968
