10
Extracted from Q-Chem output
O       1.959905     -1.152008     -0.250931
C       0.853073     -0.742017     -0.052604
C       0.580835      0.758408      0.168462
O      -0.711751      0.825262      0.764347
C      -1.563531      0.122647      0.057348
O      -0.234481     -1.508781     -0.065574
H       0.601281      1.266095     -0.802562
H       1.304123      1.198438      0.848601
H      -1.477765      0.348319     -1.022702
H      -1.277636     -1.129919      0.337482
