16
smiles: [C:1]([C:2]([O:3][C:4]([C:5](=[O:6])[H:14])([H:12])[H:13])([H:10])[H:11])([H:7])([H:8])[H:9].[H:15][H:16]
C       -2.73022400      -0.33785200       0.03115700
C       -1.27670800      -0.28525800      -0.37266200
O       -0.56383900       0.45185100       0.60266100
C        0.80841200       0.51994100       0.34634400
C        1.53465800      -0.76054000       0.71036200
O        2.64953600      -1.01858500       0.35551200
H       -2.83976900      -0.82584000       1.00034100
H       -3.30784700      -0.89756800      -0.70601300
H       -3.14307900       0.66890700       0.10404000
H       -1.15966300       0.19754300      -1.35296500
H       -0.86391300      -1.30084600      -0.45943200
H        1.22062200       1.31443100       0.97574400
H        1.03125200       0.77443200      -0.69813100
H        0.95662100      -1.44332700       1.37033000
H        4.24318900       1.67142300      -0.96837400
H        3.97533200       1.03331000      -0.69367900
