10
Extracted from Q-Chem output
N       1.956905     -0.160938      0.075621
C       0.624801     -0.362925      0.378504
N       0.010693     -1.201582      1.024943
N      -2.213254     -0.375016     -0.015861
N      -1.512816      0.599748     -0.330377
C      -0.308474      0.808782      0.076045
H       2.113870      0.305104     -0.803919
H       2.545739     -0.963676      0.228508
H      -2.945230     -0.496289     -0.725947
H      -0.015585      1.799777      0.405304
