11
Extracted from Q-Chem output
N       1.806999      0.277719     -0.151291
C       0.358940      0.086372     -0.046289
C      -0.523626      1.011184     -0.533274
N      -1.682017      0.330381     -0.174734
C      -1.410981     -0.851972      0.447134
N      -0.119638     -1.043212      0.547351
H       2.256594     -0.454955     -0.698750
H       2.261131      0.320815      0.760081
H       1.908038      1.175480     -0.629232
H      -2.608594      0.671722     -0.356433
H      -2.172098     -1.532022      0.801806
