11
Extracted from Q-Chem output
N       1.849704      0.243713     -0.122093
C       0.467286     -0.134434      0.076293
C      -0.286879      0.851997     -0.468197
N      -1.550855      0.362038     -0.212478
C      -1.435352     -0.835333      0.441313
N      -0.183934     -1.181258      0.641236
H       2.388123     -0.350422     -0.742842
H       2.379856      0.447691      0.717852
H       1.163676      1.207272     -0.654023
H      -2.422380      0.794872     -0.458695
H      -2.294498     -1.414625      0.748001
