9
Extracted from Q-Chem output
O      -1.989138     -0.243713     -0.676107
C      -0.873603     -0.274595      0.094985
N      -0.559651     -0.893868      1.102274
N       1.945847     -0.260536      0.557733
N       1.386120      0.496704     -0.243104
C       0.127261      0.776999     -0.261843
H      -2.633617     -0.837839     -0.273903
H       2.824944     -0.589296      0.138794
H      -0.195457      1.801999     -0.406291
