15
Extracted from Q-Chem output
O       0.537392     -2.675571      0.075670
C       0.597997     -1.500820     -0.040627
C      -1.040871     -0.635384      0.498661
C      -1.221737      0.621288     -0.348104
C       0.035943      1.353840      0.070102
C       1.274269      0.799642     -0.225435
C       1.486228     -0.548425     -0.537832
H      -1.486706     -1.563299      0.143641
H      -1.443171     -0.498969      1.510976
H      -1.213551      0.393429     -1.419008
H      -2.131461      1.175926     -0.117784
H      -0.005533      2.378267      0.417625
H       0.015136      0.112596      0.931163
H       2.151776      1.426868     -0.094144
H       2.478608     -0.919131     -0.757089
