11
Extracted from Q-Chem output
C      -1.966097      0.790107     -0.324805
C      -0.672493      0.552157     -0.441564
O       0.203287      0.827268      0.564083
C       1.388593      0.134629      0.579914
C       1.607616     -1.019797     -0.000410
N       1.817686     -2.146015     -0.432143
H       2.170260     -2.170622     -1.388051
H      -2.388389      1.171492      0.595340
H      -2.619278      0.614005     -1.166733
H      -0.217748      0.160307     -1.348517
H       2.173947      0.624418      1.135837
