11
Extracted from Q-Chem output
C      -1.175221     -0.204844     -0.554900
C      -0.333422      0.826220     -0.205412
O       0.249087      0.924734      1.048720
C       1.400961      0.442742      0.399740
C       1.406732     -0.894420      0.196258
N       0.808104     -1.878309     -0.125307
H      -0.104378     -1.373576     -0.711401
H      -1.652617     -0.774029      0.235248
H      -1.711577     -0.111846     -1.490903
H      -0.134813      1.665310     -0.865195
H       2.208406      1.130783      0.201996
