12
smiles: [C:4]1([H:9])([H:10])[O:5][C:6]1([H:11])[H:12].[O:1]=[C:2]=[C:3]([H:7])[H:8]
O        0.01206400       1.67221300       1.93860300
C       -0.57325300       1.74504100       0.94524100
C       -1.23472700       1.82627400      -0.17978200
C        0.08438300      -1.55973100       0.10690600
O        1.27418100      -2.27579800      -0.16609900
C        1.23282600      -0.90261800      -0.50656200
H       -1.05860800       1.09022100      -0.94836500
H       -1.94507900       2.62556000      -0.32113800
H       -0.12748200      -1.39457100       1.15935500
H       -0.77017800      -1.82789400      -0.50756000
H        1.22193500      -0.68810700      -1.57131000
H        1.86433900      -0.25642800       0.09619600
