12
Extracted from Q-Chem output
O       0.349883      0.984367      1.700600
C       0.025845      0.748698      0.547835
C      -0.962841      1.192983     -0.294205
C      -0.330120     -1.225293      0.197152
O       0.937629     -1.650849     -0.008155
C       1.149326     -0.258916     -0.289895
H      -1.010642      0.873366     -1.323425
H      -1.612610      1.999221      0.024255
H      -0.696606     -1.262301      1.217620
H      -1.036307     -1.402642     -0.608889
H       1.131894     -0.076762     -1.361506
H       2.047780      0.082098      0.215053
