18
Extracted from Q-Chem output
C       2.789983     -0.059078      0.260803
N       1.384936     -0.223740     -0.036527
C       0.627266      0.817777      0.052421
O       0.747027      2.024976      0.334158
C      -0.830787      0.544998     -0.265297
C      -1.114067     -1.433794     -0.896654
C      -1.796757      0.603526      0.864287
H       3.396521     -0.369425     -0.594335
H       3.073938     -0.691362      1.106748
H       3.037644      0.978613      0.505123
H      -0.144230     -0.865072     -0.532555
H      -1.157532      0.977106     -1.207222
H      -1.341132     -2.100791     -0.068799
H      -0.598998     -1.948377     -1.709620
H      -2.023914     -1.000020     -1.296216
H      -2.824244      0.398117      0.569081
H      -1.491504     -0.054072      1.678088
H      -1.734680      1.632408      1.228505
