12
Extracted from Q-Chem output
N       2.092994      0.655243     -0.099194
C       0.777437      0.253232      0.039038
C       0.278181     -1.044930     -0.128851
N      -1.053073     -0.934319     -0.029617
C      -1.388082      0.420063      0.162009
O      -2.595634      0.795753      0.587723
N      -0.204128      1.118531      0.250154
H       2.780861     -0.013684      0.202931
H       2.255707      1.575708      0.276339
H       0.775451     -1.959191     -0.410208
H      -1.735161     -1.671952     -0.068270
H      -1.970649      0.804596     -0.766187
