10
Extracted from Q-Chem output
O      -2.357788     -0.077826      0.224898
C      -1.187231     -0.110252      0.069958
C      -0.220848     -1.124235     -0.583272
C       0.926452     -0.183308     -0.221713
C       2.207689     -0.166040     -0.375930
C      -0.019903      0.827726      0.433425
N       0.018442      1.925604      1.019957
H      -0.383148     -1.262901     -1.652144
H      -0.195308     -2.091306     -0.081127
H       0.954917      2.309864      1.115190
