10
Extracted from Q-Chem output
O      -2.295882     -0.150495      0.171603
C      -1.122114     -0.139731      0.046566
C      -0.147368     -1.146417     -0.569509
C       1.119473     -0.453734     -0.351550
C       1.827435      0.476163      0.044518
C      -0.235869      1.024944      0.538292
N       0.129974      2.046433      1.014226
H      -0.409978     -1.306528     -1.618333
H      -0.243670     -2.104426     -0.052599
H       1.280617      1.775307      0.756831
