14
Extracted from Q-Chem output
O      -0.594809      1.560098      0.140353
C      -1.251692      0.374559     -0.248070
C      -0.660699     -0.898094      0.363141
C       0.773963     -1.146283     -0.100857
C       1.657875      0.037591      0.042115
C       1.217982      1.257988      0.217644
H       0.583375      1.592568     -0.697316
H      -1.255958      0.275237     -1.345550
H      -2.298117      0.478963      0.057483
H      -1.298147     -1.745288      0.096343
H      -0.683204     -0.808370      1.452625
H       1.240453     -1.992324      0.411963
H       0.807640     -1.428695     -1.160926
H       1.531426      2.113151      0.794133
