17
Extracted from Q-Chem output
C      -1.386791     -0.803777      0.321975
C      -1.619507      1.015352     -0.806105
C      -0.564006      0.231175     -0.327504
C       0.444199     -0.681644     -1.027075
C       0.766407     -1.056106      0.417271
C       1.860374      0.886821      0.749565
C       0.577978      0.354863      0.929218
H      -1.811921     -1.583831     -0.300061
H      -1.881519     -0.610116      1.270165
H      -1.792000      1.211415     -1.859303
H      -2.243412      1.540089     -0.093791
H       0.015063     -1.454615     -1.669011
H       1.247872     -0.172011     -1.565501
H       1.511953     -1.766318      0.773441
H       2.386711      0.786684     -0.188184
H       2.372292      1.418831      1.542790
H       0.112081      0.531158      1.896109
