10
Extracted from Q-Chem output
N      -1.242439      0.668656      0.077755
C      -0.273421     -0.190641      0.446660
O      -0.569112     -0.803576      1.602291
C       0.862000     -0.442537     -0.256751
C       1.111964      0.262790     -1.452438
N       1.268377      0.869389     -2.420895
H      -1.943435      0.918495      0.749489
H      -1.088544      1.269702     -0.711672
H       0.137717     -1.409322      1.837091
H       1.574251     -1.180795      0.080428
