10
Extracted from Q-Chem output
N      -1.410173      0.579558      0.107601
C      -0.407219     -0.155532      0.542962
O      -0.325262     -0.588718      1.740248
C       0.803387     -0.573255     -0.154645
C       1.363796      0.297054     -1.134825
N       1.800023      1.035732     -1.903702
H      -2.113437      0.909885      0.745793
H      -1.433264      0.880742     -0.850918
H       0.817489     -0.808235      1.323305
H       0.742016     -1.615069     -0.463861
