13
Extracted from Q-Chem output
C      -0.864674     -0.875597     -0.672328
C       0.209972      0.093875     -0.381220
O      -0.575578      0.172014      1.960058
C      -0.029155      1.380080      0.130116
O      -1.131233      1.621320      0.662674
C       1.608915     -0.271874     -0.752476
O       2.538552      0.486110     -0.681880
H      -1.801763     -0.560256     -0.225236
H      -0.600222     -1.873337     -0.318010
H      -0.984183     -0.945793     -1.761576
H      -0.861447     -0.058866      2.859958
H       0.810599      2.072540      0.230859
H       1.741793     -1.307986     -1.119451
