16
Extracted from Q-Chem output
C      -2.093396     -0.176182     -0.846702
C      -0.658604      0.250313     -0.626964
O      -0.622549      1.557671     -0.001866
C       0.068139     -0.661174      0.340619
C       1.398794     -0.374685     -0.201039
O       1.770475     -0.819383     -1.385123
N       2.292676      0.327814      0.453108
H      -2.690338     -0.129721      0.080917
H      -2.142924     -1.198251     -1.233285
H      -2.586235      0.464421     -1.582043
H       0.907734     -0.778580     -1.867848
H      -0.484043      2.192916     -0.701957
H      -0.030627     -0.428772      1.413456
H      -0.174890     -1.708772      0.152760
H       3.104122      0.684791     -0.022442
H       2.063439      0.677716      1.366918
