10
Extracted from Q-Chem output
C       2.281653     -0.287315      0.043492
C       1.090900     -0.319023      0.171437
C      -0.343264     -0.372969      0.311307
C      -1.167895      0.731029     -0.238822
N      -1.179054     -0.576134     -0.874835
H       3.340016     -0.257534     -0.065918
H      -0.696801     -0.895623      1.192496
H      -0.641920      1.545651     -0.722805
H      -2.084763      1.005232      0.268749
H      -0.598873     -0.573315     -1.705419
