13
Extracted from Q-Chem output
C       1.131528     -0.699467      0.883529
C       0.375495      0.930456     -0.539108
C       0.565622     -0.545291     -0.479710
C      -0.988825     -0.472934     -0.429903
N      -1.377809      0.055095      0.794718
C      -0.942625      1.115375     -0.065778
H       2.127557     -0.288378      0.992999
H       0.994880     -1.656934      1.385036
H       0.901670      1.652651     -1.157120
H       0.928536     -1.071712     -1.367416
H      -1.675900     -0.849151     -1.176238
H      -0.459892     -0.137954      1.392572
H      -1.576959      1.971781     -0.239858
