16
Extracted from Q-Chem output
C       1.866364      0.173943     -0.231735
N       0.547159     -0.404750     -0.308863
C      -0.539367     -0.098096      0.609997
C      -0.893156      1.383636      0.622830
C       0.113588     -1.301828     -1.170240
C      -1.250983     -1.741581     -1.022010
C      -1.611355     -0.999533      0.065657
H       2.325572     -0.042872      0.734320
H       2.486506     -0.251240     -1.018981
H       1.822631      1.256392     -0.366002
H      -0.231354     -0.421642      1.612402
H      -0.066809      1.999705      0.983352
H      -1.743859      1.548320      1.283902
H       0.822530     -1.640746     -1.924492
H      -1.172411      1.711675     -0.379664
H      -2.586162     -1.000470      0.547645
