11
Extracted from Q-Chem output
C       1.469310     -0.410306     -0.004633
C       0.202426      0.322528     -0.342340
O       0.151124      1.195089     -1.175630
C      -1.059511     -0.080095      0.390840
O      -2.173200      0.604867     -0.082207
H       2.332903      0.194100     -0.273752
H       1.507672     -0.680891      1.051475
H       1.498023     -1.336330     -0.584616
H      -0.897870      0.113853      1.461181
H      -1.839853      1.224858     -0.746216
H      -1.190661     -1.165603      0.284083
