13
Extracted from Q-Chem output
C      -1.656414     -0.042236      0.308682
C      -0.435607      0.469646     -0.440231
O      -0.402889     -0.055736     -1.728708
C       1.215092      0.287615      0.431447
O       1.957787     -0.812440      0.971548
H      -2.503248      0.565107     -0.016682
H      -1.537979      0.108621      1.383064
H      -1.911948     -1.092028      0.119642
H       0.270273     -0.450811      0.137459
H      -0.038628      0.621946     -2.299927
H       1.773312      0.775025     -0.360869
H       0.996546      0.947458      1.260076
H       2.331983     -1.320066      0.247417
