10
Extracted from Q-Chem output
N      -2.028442     -0.220206     -0.346087
C      -0.771145     -0.346545     -0.197729
N      -0.010940     -1.481751     -0.373020
O       1.294313     -1.083512     -0.083855
C       1.427050      0.126106      0.238287
C       0.130370      0.807874      0.220794
H      -0.138493      1.215382      1.198709
H      -2.437192     -1.108136     -0.628141
H       2.426515      0.469276      0.470573
H       0.106143      1.637803     -0.490006
