13
Extracted from Q-Chem output
C      -1.079155     -0.823017      0.842667
C      -1.091070      0.296522     -0.180323
N      -0.925532      1.589926      0.164080
C       0.356257      0.777735     -0.724507
C       1.470556      0.110157     -0.090980
C       2.417476     -0.433042      0.398070
H      -0.441342     -0.568361      1.687145
H      -2.101217     -0.958573      1.202050
H      -0.747500     -1.765887      0.402882
H      -1.720006      0.049461     -1.054351
H       0.444728      1.886532     -0.587371
H       0.293451      0.650961     -1.803542
H       3.260124     -0.910421      0.839704
