13
Extracted from Q-Chem output
O       1.011271      0.235676     -1.344659
C       0.159856      0.006276     -0.329399
C      -1.124812     -0.841684     -0.452512
O      -1.852626      0.087881      0.361529
C      -0.812816      1.067055      0.255408
C       1.191196     -0.544659      0.575338
O       2.282042      0.096630      0.724413
H       2.211884      0.751748     -0.036042
H      -1.131526     -1.853365     -0.033983
H      -1.482745     -0.860598     -1.485774
H      -1.030159      1.830236     -0.499989
H      -0.582265      1.537917      1.215482
H       1.165640     -1.520101      1.065527
