11
Extracted from Q-Chem output
N       2.222616      0.308415     -0.061851
C       0.997908      0.049426      0.055384
C       0.452487     -1.323436      0.038011
N      -0.756700     -1.390493      0.450680
C      -1.475037     -0.453859      0.923199
C      -1.355698      0.692235     -0.074861
O       0.036948      1.025356      0.137042
H       2.383265      1.312043     -0.119042
H       0.970701     -2.145198     -0.433567
H      -1.535173      0.414656     -1.118934
H      -1.913874      1.580272      0.201843
