14
Extracted from Q-Chem output
C      -1.702052      0.271171      0.614719
C      -0.464250     -0.360723      0.072107
C      -0.282995     -1.635984     -0.338513
O       0.978787     -1.847566     -0.755814
C       1.639733     -0.663919     -0.621561
C       0.808998      0.279939     -0.117099
N       1.088877      1.598993      0.251373
H      -2.500991     -0.462882      0.720954
H      -2.070547      1.065249     -0.040963
H      -1.519341      0.713749      1.596753
H      -0.950433     -2.481781     -0.383797
H       2.676639     -0.659508     -0.911030
H       0.339360      2.237247      0.033664
H       1.958216      1.946014     -0.120791
