14
Extracted from Q-Chem output
C      -1.699106      0.264146      0.540442
C      -0.438360     -0.392144      0.071183
C      -0.295612     -1.801466     -0.192881
O       0.767194     -2.297897     -0.549889
C       1.912849     -0.139186     -0.805245
C       0.723855      0.220150     -0.246726
N       1.252338      1.547263     -0.208066
H      -2.560528     -0.049518     -0.053940
H      -1.624690      1.350195      0.454523
H      -1.921751      0.033487      1.585463
H      -1.194054     -2.438610     -0.092770
H       2.761474     -0.421228     -0.186589
H       1.309269      1.983927      0.698499
H       1.023353      2.163674     -0.968287
