13
Extracted from Q-Chem output
C      -1.193410     -0.893344      0.031831
N      -0.063545     -0.172948      0.584473
C      -0.110718      1.287314      0.488397
C       0.767578      1.030975     -0.668527
C       1.300602     -0.234262     -0.423326
C       2.082849     -1.172839     -0.858241
H      -0.847298     -1.865382     -0.321637
H      -1.699957     -0.377683     -0.793703
H      -1.915244     -1.065654      0.834123
H      -1.088185      1.699597      0.228089
H       0.309574      1.795335      1.355992
H       0.615798      1.432544     -1.670693
H       1.820180     -2.217986     -0.708582
