17
smiles: [C:3]1([H:11])=[C:4]([H:13])[C:5]([H:14])([H:15])[C:6]([H:16])([H:17])[O:7]1.[O:1]([C:2]([H:9])([H:10])[H:12])[H:8]
O        2.65018800      -0.27830100      -0.58816400
C        2.49977300      -0.77459700       0.72480700
C       -0.58762400      -0.51804200      -1.12416000
C       -1.74197300      -0.73601500      -0.51308400
C       -2.12278300       0.51137200       0.24493800
C       -0.83248200       1.33851300       0.11329400
O       -0.03340200       0.70212900      -0.90157900
H        1.94694500       0.34774800      -0.76242900
H        2.58175100       0.01650500       1.47887600
H        3.30624300      -1.48777800       0.89164000
H       -0.02103600      -1.15813400      -1.78545900
H        1.54664100      -1.29767600       0.86266300
H       -2.33496000      -1.63356400      -0.58589400
H       -2.37136900       0.32082200       1.29039300
H       -2.98472700       1.00864900      -0.21021600
H       -0.25482200       1.33126000       1.04151000
H       -0.99939000       2.37127700      -0.19012600
