17
Extracted from Q-Chem output
O       2.718061     -0.224255     -0.545123
C       1.811593     -0.749637      0.376966
C       0.056574     -0.465606     -0.764852
C      -1.092156     -0.913739     -0.017098
C      -1.867893      0.337923      0.331010
C      -0.821260      1.424280      0.097724
O       0.111688      0.875444     -0.862092
H       2.419526      0.661314     -0.772667
H       1.793353     -0.197846      1.330572
H       2.059958     -1.800110      0.546611
H       0.540672     -0.991212     -1.582665
H       0.309424     -0.962254      0.432617
H      -1.571168     -1.839506     -0.300568
H      -2.230387      0.376256      1.360458
H      -2.732044      0.485000     -0.327355
H      -0.265069      1.648527      1.012585
H      -1.204654      2.350305     -0.326029
