14
smiles: [C-:2]([N:3]([C+:4]=[N:5][H:14])[H:13])([H:11])[H:12].[C:1]([C:6]#[N:7])([H:8])([H:9])[H:10]
C       -0.53725400       2.22507400      -1.53480400
C       -0.20943500      -2.65430400       1.41047800
N       -0.16860400      -1.38229100       1.53924400
C        0.32861400      -0.44971300       0.49712900
N        1.52540900      -0.71722500       0.18931700
C        0.75192600       1.96477300      -2.15956700
N        1.76673900       1.75865700      -2.65166500
H       -1.33356100       2.12374900      -2.27128900
H       -0.55575800       3.23509600      -1.12705000
H       -0.70915700       1.51347600      -0.72804900
H        0.36785300      -3.09256100       0.60619400
H       -0.83624100      -3.26060900       2.05189700
H       -0.73009600      -0.94520600       2.25884900
H        1.80538300      -0.12735600      -0.59015200
