15
smiles: [C:1](=[C:2]([H:11])[H:12])([H:9])[H:10].[C:3](#[O+:4])[C:5](=[C-:6][C:7]([H:13])([H:14])[H:15])[H:8]
C       -2.98753600      -0.36634600       0.44714300
C       -2.74363900       0.62329300      -0.39452400
C        0.49353100       0.48675300       0.24319700
O        0.66776700       1.49745900      -0.26683700
C        0.61525900      -0.71671000       0.85794500
C        1.95478700      -1.00709100       1.03204600
C        3.08269900      -0.14598500       0.61106500
H       -0.22606600      -1.32742800       1.15350000
H       -3.00679800      -1.39964500       0.11957300
H       -3.17823000      -0.18480600       1.49876300
H       -2.72437800       1.65670800      -0.06728300
H       -2.55305500       0.44168200      -1.44617000
H        2.88512700       0.81665500       0.11269700
H        3.69652000       0.04096800       1.49698800
H        3.72343800      -0.74896200      -0.03899300
