15
Extracted from Q-Chem output
C      -2.402198     -0.698163      0.406375
C      -2.056481      0.503427     -0.160138
C      -0.093306      0.694204     -0.133437
O       0.460294      1.622172     -0.553875
C       0.381810     -0.636729      0.549474
C       1.614854     -0.795367      0.709577
C       2.947594     -0.247809      0.531749
H      -0.589092     -1.178294      0.752149
H      -2.568513     -1.578702     -0.201352
H      -2.667338     -0.770788      1.453718
H      -2.218122      1.421100      0.397505
H      -2.120753      0.621273     -1.237869
H       2.885958      0.741119      0.047285
H       3.456822     -0.136900      1.490645
H       3.560843     -0.902288     -0.090099
