21
smiles: [C:1]([C:2]([C:3]([H:11])([H:12])[H:13])=[C:5]1[C:6]([H:18])([H:19])[C:7]1([H:20])[H:21])([H:8])([H:9])[H:10].[C:4]([H:14])([H:15])([H:16])[H:17]
C       -0.29718900       2.30401700      -0.40275600
C       -0.19784100       0.84162700      -0.72761300
C       -1.44992600       0.17355400      -1.21722700
C       -1.15876300      -1.66681700       2.13919100
C        0.93175500       0.17828100      -0.58981400
C        2.34349300       0.19191900      -0.21564600
C        1.65323100      -1.08662800      -0.70359100
H        0.65335000       2.69701000      -0.04337200
H       -0.59859900       2.87840200      -1.28396800
H       -1.05661300       2.48096900       0.36481100
H       -2.25143000       0.26251300      -0.47775400
H       -1.81197000       0.64851800      -2.13408400
H       -1.28228000      -0.88374000      -1.42023400
H       -1.31913300      -1.37636600       3.17639400
H       -2.12116600      -1.80005000       1.64730600
H       -0.60129700      -2.60163200       2.10656600
H       -0.59471000      -0.88888100       1.62694800
H        3.05872600       0.66018500      -0.88301100
H        2.60805600       0.24792800       0.83472000
H        1.46661800      -1.86452200       0.02867400
H        1.91939200      -1.45298500      -1.68908100
