21
Extracted from Q-Chem output
C      -0.506219      1.658713      0.305440
C      -0.361398      0.218036     -0.084528
C      -1.340846     -0.318242     -1.086394
C      -1.315672     -0.625667      1.678209
C       0.942590     -0.363627     -0.041349
C       2.297841      0.175094     -0.230929
C       1.790321     -1.003627     -1.059122
H       0.125844      1.898544      1.158407
H      -0.153254      2.251058     -0.544794
H      -1.537980      1.934327      0.518905
H      -2.370345     -0.043738     -0.860405
H      -1.068007      0.113055     -2.055100
H      -1.258163     -1.400073     -1.175614
H      -0.830724     -0.365023      2.623173
H      -2.265964     -0.103039      1.593970
H      -1.474678     -1.704664      1.600670
H      -0.039901     -0.645116      0.952951
H       2.441413      1.110592     -0.767486
H       3.061173     -0.018755      0.516272
H       2.216065     -1.983964     -0.867830
H       1.614589     -0.805739     -2.114621
