15
Extracted from Q-Chem output
C       1.838873      0.308163      0.140052
C       0.360975      0.098236      0.063271
C      -0.706855      0.601280      1.048338
C      -1.642428     -0.423980      0.464997
O      -1.671861      0.428946     -1.350215
C      -0.408727     -0.152397     -1.215327
C      -0.457986     -1.169925     -0.113970
H       2.235195     -0.014065      1.105430
H       2.353020     -0.260291     -0.637755
H       2.088338      1.362548      0.002234
H      -1.023463      1.644832      1.061775
H      -0.436350      0.266791      2.055012
H      -2.386369     -0.103836     -0.508467
H       0.147612     -0.291491     -2.137210
H      -0.241260     -2.226337     -0.167481
