15
Extracted from Q-Chem output
C       2.046170     -0.404061     -0.458205
O       0.695549     -0.826581     -0.509364
C      -0.196957      0.165613     -0.634056
C      -1.566066     -0.380591     -0.880147
C      -0.523762      0.763504      1.442314
H       2.665203     -1.295030     -0.548263
H       2.252664      0.083005      0.500210
H       2.260181      0.292651     -1.270653
H      -0.095992      1.079032      0.149124
H      -1.820949     -1.236200     -0.243854
H      -1.593857     -0.723815     -1.917390
H      -2.319969      0.396201     -0.763680
H      -1.511273      1.209184      1.538217
H       0.230896      1.345820      1.971552
H      -0.509094     -0.277214      1.751139
