13
Extracted from Q-Chem output
C       1.717055      0.098131     -0.453175
C       0.626665      0.486388      0.498379
O       0.773897      1.178365      1.452177
N      -0.728073     -0.024110      0.171823
C      -0.799661     -1.272979     -0.290034
C      -1.696831      0.860261      0.355310
H       2.552789      0.774957     -0.295110
H       2.049739     -0.919997     -0.245897
H       1.368597      0.133431     -1.483885
H      -1.767299     -1.671859     -0.545021
H       0.086561     -1.878825     -0.302598
H      -1.439431      1.824008      0.753908
H      -2.712442      0.560452      0.154079
