13
Extracted from Q-Chem output
C       1.850275     -0.041120     -0.242085
C       0.680296      0.743711      0.268755
O       0.751001      1.780388      0.868286
N      -0.587051      0.162333      0.028664
C      -0.895940     -1.065410     -0.486408
C      -1.749172      0.619181      0.533533
H       2.715062      0.614913     -0.295070
H       2.063903     -0.865141      0.440085
H       1.636832     -0.475344     -1.219947
H      -1.377269     -1.780805      0.158529
H      -0.669534     -1.307578     -1.518896
H      -1.800208      0.973756      1.557017
H      -2.599835      0.673894     -0.123380
