15
Extracted from Q-Chem output
C      -2.475140     -0.238269      0.031968
C      -1.017450      0.103498     -0.018427
C      -0.450747      1.354721     -0.249553
N       0.905700      1.314724     -0.234127
C       1.165768      0.036196      0.008645
N       2.597068     -0.299752      0.072536
C       0.065402     -0.787245      0.155909
H      -2.740376     -1.001976     -0.704702
H      -2.775315     -0.617807      1.012976
H      -3.085417      0.642118     -0.177593
H      -0.974326      2.284678     -0.428718
H       3.056487      0.597978     -0.099739
H       2.886180     -0.653843      0.982929
H       2.883972     -0.964930     -0.643632
H       0.028298     -1.849426      0.354218
