15
Extracted from Q-Chem output
C      -2.464002     -0.185891      0.022922
C      -0.986334      0.059803     -0.012844
C      -0.355503      1.272250     -0.257523
N       0.992383      1.097330     -0.212450
C       1.190790     -0.202445      0.056169
N       2.638325     -0.286112      0.074567
C       0.027922     -0.916742      0.194730
H      -2.767803     -0.927953     -0.720199
H      -2.792510     -0.551690      0.999388
H      -3.015277      0.732313     -0.185962
H      -0.805966      2.232607     -0.459153
H       2.368099      0.939608     -0.179101
H       3.058571     -0.508148      0.969869
H       3.058486     -0.842731     -0.661002
H      -0.104972     -1.966062      0.408049
