14
Extracted from Q-Chem output
C      -1.993510      0.093743      0.064611
C      -0.512197     -0.058836     -0.008200
C       0.455349      1.060854      0.127475
C       1.778742      0.421428     -0.024106
N       1.612195     -0.830031     -0.210253
C       0.133129     -1.254291     -0.218514
O      -0.117072     -2.436138     -0.392596
H      -2.386795      0.750063     -0.719643
H      -2.328384      0.501897      1.024578
H      -2.462054     -0.883256     -0.058115
H       0.359287      1.850511     -0.632346
H       0.430251      1.583137      1.095369
H       2.750186      0.898205      0.011010
H       2.347835     -1.511066     -0.345256
