14
Extracted from Q-Chem output
O       1.852510      1.669071     -1.122272
N       1.369356      0.391798     -0.948979
C       0.558908      0.265350      0.027161
C      -0.025600     -1.092550      0.277349
C      -1.495276     -1.184171     -0.132032
C       0.162125      1.399291      0.920507
O      -0.541620      1.227528      1.881590
H       2.434002      1.579191     -1.879860
H       0.072153     -1.318573      1.341690
H       0.570106     -1.817703     -0.277871
H      -1.877218     -2.189287      0.051677
H      -1.617086     -0.966473     -1.194825
H       0.545694      2.396038      0.658378
H      -2.107233     -0.484347      0.437488
