12
smiles: [C:1]1([H:7])([H:8])[C-:2]=[O+:3][C:4]([H:10])([H:11])[O+:5]=[C-:6]1.[H:9][H:12]
C        1.02932600       0.41938100       0.36309300
C        0.41430800      -0.82653300       0.95165500
O       -0.88650800      -0.78500400       0.83290400
C       -1.50140800       0.35224400       0.23919600
O       -0.83780200       0.70439500      -0.96926800
C        0.46670200       0.77956200      -0.99014700
H        2.11291200       0.37092500       0.35224800
H        0.73137100       1.24269800       1.03633700
H        1.16591900      -2.06316900      -1.13802300
H       -2.52490300       0.08927400      -0.00596400
H       -1.45053300       1.19308800       0.93444500
H        1.17450100      -1.64406300      -1.75335500
