12
Extracted from Q-Chem output
C       1.073976      0.395394      0.355189
C       0.481267     -0.932133      0.750270
O      -0.836861     -0.901037      0.708443
C      -1.449953      0.258241      0.158386
O      -0.776426      0.531553     -1.064410
C       0.542513      0.522046     -1.049301
H       2.157690      0.387660      0.385697
H       0.677724      1.193901      0.987012
H       0.934106     -1.607403     -0.727144
H      -2.486987      0.026403     -0.064576
H      -1.360256      1.102356      0.843129
H       0.955053     -1.086222     -1.379326
