16
Extracted from Q-Chem output
C       0.341819     -1.656686     -0.211025
C      -1.452367     -0.485459      0.749852
C      -1.395474      0.877104      0.716952
C       0.319304      1.848108     -0.154582
C       1.277233      1.234595     -0.622439
C       1.376171     -0.916854     -0.704407
H      -0.391659     -2.072137     -0.886407
H       0.428404     -2.130571      0.755543
H      -1.207588     -1.012310      1.660410
H      -2.062396     -1.018501      0.035680
H      -1.154449      1.413058      1.625695
H      -1.999777      1.410503     -0.005289
H      -0.126125      2.794343      0.062701
H       2.235205      1.278911     -1.092704
H       2.292174     -0.848258     -0.132033
H       1.473969     -0.803934     -1.776318
