15
Extracted from Q-Chem output
C      -0.610338      1.074043      0.003408
C      -0.189175     -0.366645     -0.156606
C       1.309760     -0.234652     -0.386817
C       1.397902      1.148243      0.163404
N       1.928948      2.121770      0.639816
C      -0.799678     -1.490489      0.575501
N      -0.926584     -1.386598     -0.881029
H      -0.923167      1.530994     -0.938344
H      -1.342966      1.268799      0.788972
H       0.626679      2.082933      0.555075
H       1.557529     -0.230169     -1.450887
H       1.961428     -0.937276      0.134438
H      -1.668668     -1.279231      1.189501
H      -0.186763     -2.316200      0.920065
H      -1.844728     -1.040198     -1.132526
