12
Extracted from Q-Chem output
C      -2.102129      0.280269      0.038181
C      -0.805086     -0.029841     -0.181949
C      -0.098194     -0.956793     -0.996020
O       1.308563     -0.876909     -0.559630
C       1.400027      0.124880      0.209962
O       2.548592      0.568032      0.671418
N       0.249987      0.699110      0.462469
H      -2.377478      1.107204      0.677040
H      -2.886225     -0.269120     -0.458705
H       0.126817      1.490903      1.068358
H      -0.376367     -1.983246     -1.166206
H       3.258641      0.006459      0.340307
