15
smiles: [O:1]1[C:2]([H:9])([H:10])[C:3]([H:11])([H:12])[C@@:4]1([C:6]#[C:7][H:15])[H:13].[O:5]([H:8])[H:14]
O        0.29596100      -0.30257800       1.06279500
C        1.50656200       0.07788500       0.38807700
C        0.72390800       0.81240400      -0.70459900
C       -0.52010800       0.27418400       0.02990200
O        0.07973100      -2.94311400       0.22046800
C       -1.48060300       1.25479400       0.52300000
C       -2.26843100       2.07051800       0.90650800
H        0.11524800      -2.15344200       0.76175200
H        2.06956500      -0.79705200       0.05192800
H        2.14398500       0.69699900       1.02288800
H        0.85506900       0.45049400      -1.72162000
H        0.81253900       1.89575900      -0.68170500
H       -1.05623200      -0.50625000      -0.51991900
H       -0.28863500      -3.62303700       0.78609000
H       -2.97030700       2.79171800       1.25330600
