15
Extracted from Q-Chem output
O       0.575933      0.713116      1.347711
C       0.944193      1.308557      0.153455
C       0.843942      0.142512     -0.814267
C      -0.288036     -0.647815     -0.235072
O       0.666530     -1.738688      1.466075
C      -1.533826     -0.091997      0.098622
C      -2.648985      0.309459      0.296073
H       0.827125     -0.731744      1.597158
H       1.951937      1.747554      0.168429
H       0.246323      2.113281     -0.132098
H       1.739739     -0.477506     -0.750275
H       0.650931      0.328228     -1.880918
H      -0.343857     -1.693890     -0.511996
H      -0.004681     -1.981116      2.109345
H      -3.622897      0.700594      0.477294
