13
Extracted from Q-Chem output
C      -1.579587     -0.089888     -0.104912
N      -0.195089      0.266913     -0.465662
C       0.583605      1.085187      0.494565
C       1.577245      0.131457      0.688560
O       2.611230     -0.035216      1.306217
C       0.842340     -0.824544     -0.301181
H      -1.988396     -0.794558     -0.831175
H      -1.562505     -0.530280      0.889769
H      -2.183590      0.816004     -0.086166
H      -0.192195      0.624063     -1.420294
H       0.310262      2.089216      0.776089
H       0.396131     -1.726156      0.117571
H       1.346910     -1.042441     -1.242591
