13
Extracted from Q-Chem output
C      -1.620497     -0.127180     -0.154717
N      -0.253595      0.129092     -0.545168
C       0.605963      1.155503      0.328545
C       1.616664      0.153802      0.515017
O       2.675908      0.070141      1.081329
C       0.812332     -0.869489     -0.315254
H      -2.057688     -0.885688     -0.805457
H      -1.668091     -0.460290      0.889042
H      -2.201295      0.789758     -0.254032
H       0.265687      1.104982     -0.952918
H       0.114008      1.868007      0.975545
H       0.431627     -1.663593      0.329365
H       1.254796     -1.290787     -1.216964
