15
Extracted from Q-Chem output
O       2.107327      0.126521     -0.642048
C       1.252629      0.331334      0.438835
C       0.109727      1.321013      0.142564
C      -0.850056      0.210288     -0.299925
O      -2.125973      0.255145      0.215390
C       0.085282     -1.687759     -0.505940
C       0.213562     -0.796981      0.564807
H       1.759121     -0.659334     -1.106067
H       1.832869      0.544893      1.336633
H      -0.279586      1.768258      1.057774
H       0.315849      2.089786     -0.600460
H      -2.731277     -0.208514     -0.365453
H      -0.803087     -2.316639     -0.340741
H      -0.827996      0.052288     -1.377832
H      -0.244967     -0.916567      1.546416
