13
smiles: [C:1]([C:3](=[C:2]=[O:7])[H:11])([H:8])([H:9])[H:10].[N:4]#[C:5][N:6]([H:12])[H:13]
C       -2.75191300       0.07862000      -0.12698500
C       -0.35311200       0.52665300       0.30242900
C       -1.28612000      -0.26791700      -0.15393900
N        1.79843100      -1.65813300      -1.02497500
C        2.44320800      -0.75840600      -0.70825500
N        3.20116400       0.29974700      -0.39293800
O        0.47304100       1.23220600       0.70708900
H       -3.17097700       0.09008900      -1.13498500
H       -3.31573100      -0.64594700       0.46372100
H       -2.91587200       1.06283900       0.31152000
H       -0.93996200      -1.20935600      -0.56087900
H        2.71292600       1.06342100       0.04561800
H        4.08771300       0.08198800       0.03204900
