15
Extracted from Q-Chem output
C       2.097287     -0.032387     -0.147847
C       0.820655      0.182097     -0.963351
C      -0.387618     -0.502432     -0.393205
C      -1.346385      0.096571      0.321573
O      -1.344273      1.407449      0.676321
N      -2.518002     -0.495790      0.763011
H       2.959881      0.446981     -0.616867
H       2.315726     -1.097730     -0.049570
H       1.989340      0.370733      0.861766
H       0.642719      1.258956     -1.080923
H       0.985913     -0.176085     -1.983883
H      -0.495134     -1.565927     -0.572610
H      -0.522040      1.805281      0.381803
H      -2.841890     -0.135401      1.646400
H      -2.507207     -1.500969      0.732564
