15
Extracted from Q-Chem output
C       2.226755      0.018767     -0.467514
C       0.731722      0.109249     -0.745552
C      -0.095692     -0.292322      0.474996
C      -1.441136      0.205370      0.519812
O      -1.429831      1.442375      0.891514
N      -2.596088     -0.423876      0.330827
H       2.814049      0.273038     -1.352821
H       2.505824     -0.992753     -0.161703
H       2.508105      0.695657      0.341428
H       0.480386      1.131974     -1.042409
H       0.496256     -0.524805     -1.612015
H       0.027119     -1.344757      0.736170
H      -0.304056      1.092040      1.140057
H      -3.462803      0.016801      0.584579
H      -2.611639     -1.345409     -0.062186
