13
smiles: [N:1](=[C:2])[H:8].[O:3]([C:4]([C:5]([C:6]#[N:7])([H:12])[H:13])([H:10])[H:11])[H:9]
N       -1.66798100       1.71521100      -0.63542700
C       -1.80172300       1.59416900       0.51295600
O        0.19924800      -1.24028200       1.93195800
C        0.09033300      -1.12258400       0.53491400
C        1.04765500      -0.05452800      -0.00850700
C        0.98345100       0.03714900      -1.46344300
N        0.90939100       0.08782100      -2.60685400
H       -1.55340400       1.81896300      -1.61952100
H       -0.25422700      -0.50644700       2.34997400
H       -0.93505200      -0.89744400       0.22288300
H        0.35633000      -2.09430100       0.11783900
H        0.80330400       0.92501300       0.41008300
H        2.06971600      -0.29475800       0.28957700
