13
Extracted from Q-Chem output
N      -2.417606      1.474846      0.691830
C      -1.998843      0.653933      1.423954
O      -0.155981     -0.066539      1.380014
C       0.155438     -0.716047      0.195341
C       1.334731     -0.002653     -0.481788
C       1.690664     -0.606985     -1.761296
N       1.943073     -1.096384     -2.767976
H      -2.020746      2.019655     -0.057275
H      -1.472415     -0.198930      1.963451
H      -0.691254     -0.733898     -0.514081
H       0.431322     -1.763776      0.373814
H       1.083422      1.047220     -0.645880
H       2.201170     -0.028118      0.181039
