15
Extracted from Q-Chem output
C       2.260107      0.323421     -0.592010
C       0.866676      0.720056     -1.053343
N      -0.146404      0.000186     -0.309150
C      -2.017632     -1.275022      1.113681
C      -0.980578      0.673871      0.343045
O      -1.959605      0.145127      1.081356
H       3.023654      0.830503     -1.185055
H       2.401443     -0.753740     -0.691884
H       2.409558      0.586739      0.456981
H       0.749961      0.466276     -2.110887
H       0.739603      1.809933     -0.968723
H      -2.861257     -1.523911      1.753144
H      -1.093289     -1.687479      1.521215
H      -2.163716     -1.678016      0.110337
H      -1.015668      1.766537      0.389699
