13
Extracted from Q-Chem output
O      -1.635443      0.315527      0.747091
C      -0.852826     -0.988067     -0.238656
C       0.219844     -0.258030     -0.796483
C      -0.685249      1.325793      0.030495
O      -0.011487      2.005391      0.744228
C       1.519921     -0.394436     -0.225051
C       2.597667     -0.471392      0.297369
H      -1.281301      0.276302      1.646187
H      -0.671298     -1.698536      0.559680
H      -1.720232     -1.212037     -0.846449
H       0.178791     -0.030005     -1.855087
H      -1.248544      1.650977     -0.850704
H       3.557274     -0.536390      0.751804
