12
Extracted from Q-Chem output
N       0.065767      0.611084      0.637905
C       0.995430     -0.344605      0.003550
C      -1.135015     -0.598200     -0.386711
O      -2.259412     -0.481339      0.327925
C       2.200486      0.208179     -0.486743
N       3.135809      0.700525     -0.960162
H       0.283815      0.900027      1.592812
H      -0.009113      1.446381      0.072416
H       1.111684     -1.243793      0.594363
H      -1.050454     -0.031428     -1.305723
H      -0.844587     -1.634632     -0.428951
H      -2.588660      0.422921      0.308307
