12
smiles: [C:1]([N:2]([C:3]#[N:4])[H:10])([H:7])([H:8])[H:9].[C:5](=[O:6])([H:11])[H:12]
C        2.12321800      -0.58150800       0.02285300
N        0.74651500      -0.31786500       0.42779700
C       -0.20613900      -1.17220300       0.05053700
N       -1.01693100      -1.93808100      -0.24233200
C       -2.43933200       1.35789300      -0.12901600
O       -1.34535300       1.76411000       0.13193400
H        2.36755100      -1.61518100       0.26139600
H        2.78293100       0.06752600       0.59627200
H        2.28838600      -0.41574700      -1.04514100
H        0.46010700       0.64742100       0.42894900
H       -3.30035200       2.04025500      -0.26541100
H       -2.64904500       0.27767200      -0.24921800
