12
Extracted from Q-Chem output
C       1.850366     -0.634610      0.033420
N       0.655293      0.068879      0.469956
C      -0.521129     -0.152781     -0.097961
N      -1.130074     -0.898303     -0.868151
C      -1.826431      0.782819     -0.075673
O      -1.697372      1.928552     -0.529649
H       1.634273     -1.700353     -0.030631
H       2.637040     -0.485217      0.770615
H       2.197113     -0.284150     -0.941703
H       0.763229      0.990926      0.861212
H      -2.473966     -0.049789     -0.689117
H      -2.230271      0.484716      0.905507
