18
Extracted from Q-Chem output
C      -0.838579     -1.112567      0.547272
C       0.213124     -0.453743     -0.354092
C      -0.400784      0.375839     -1.490817
C      -1.130915      1.613641     -0.986011
C       1.413747      0.178624      0.217388
C       1.797789     -0.267874      1.567663
H      -1.642893     -1.542666     -0.052592
H      -1.288737     -0.386188      1.227287
H      -0.415418     -1.914149      1.153254
H       0.800020     -1.258439     -0.856433
H      -1.086952     -0.249488     -2.071018
H      -1.520116      2.205576     -1.815931
H      -0.450776      2.248934     -0.412382
H      -1.975671      1.355385     -0.343291
H       0.408834      0.679258     -2.156906
H       0.998609     -0.562549      2.258660
H       2.488435      0.424591      2.049440
H       2.394825     -1.171826      1.359214
