18
Extracted from Q-Chem output
C      -0.925478     -1.489518      0.602054
C      -0.108904     -1.013315     -0.572713
C      -0.168117      0.404045     -1.083644
C      -1.048471      1.457663     -0.460584
C       1.085280     -0.105998     -0.420030
C       1.561178      0.397418      0.919194
H      -1.932069     -1.771628      0.284427
H      -1.032582     -0.733696      1.379669
H      -0.465787     -2.367133      1.062522
H      -0.003951     -1.767853     -1.345733
H      -0.099928      0.497896     -2.162819
H      -0.656924      2.457816     -0.660860
H      -1.134185      1.353420      0.620779
H      -2.059030      1.408969     -0.872779
H       1.900952     -0.318069     -1.103818
H       0.744039      0.597925      1.611800
H       2.125918      1.325852      0.806480
H       2.218058     -0.333793      1.396054
