18
Extracted from Q-Chem output
C      -0.891849     -1.374573      0.582781
C       0.056086     -0.997061     -0.541811
C      -0.096203      0.389974     -1.181668
C      -1.036322      1.398464     -0.564186
C       1.399139     -0.401311     -0.318269
C       1.610050      0.240895      1.027367
H      -1.890764     -1.581121      0.191639
H      -0.990267     -0.606539      1.348636
H      -0.539175     -2.284959      1.071297
H       0.062101     -1.780164     -1.299217
H      -0.183114      0.307839     -2.263161
H      -1.006398      2.336576     -1.119539
H      -0.783326      1.620583      0.472615
H      -2.064188      1.029848     -0.579904
H       1.030021      0.753565     -1.160024
H       0.740896      0.618105      1.579493
H       2.371971      1.019733      0.987921
H       2.032982     -0.572726      1.628127
