14
Extracted from Q-Chem output
C       1.248433     -0.498160      0.993842
C       0.654882      0.314231     -0.123389
O       1.603919      1.172123     -0.669323
C      -0.432446     -0.099790     -0.905803
C      -1.669937     -0.527645     -0.210807
O      -1.914747      0.810852      0.079500
H       2.079410     -1.092991      0.609576
H       1.633228      0.162370      1.769441
H       0.515034     -1.169611      1.436156
H      -0.423320      0.927663      0.307095
H       1.169133      1.848652     -1.192932
H      -0.568284      0.294111     -1.908255
H      -1.514846     -1.181405      0.655511
H      -2.412933     -0.981731     -0.874885
