13
Extracted from Q-Chem output
C       2.077677     -0.417775     -0.632539
C       0.820123     -0.808974     -0.760512
C      -0.216882     -0.727973      0.322984
C      -1.448565      0.032501     -0.108604
C      -1.802271      1.177370      0.407975
N      -2.188783      2.187587      0.974648
H       2.449067      0.003469      0.296176
H      -1.843063      3.059723      0.582687
H       2.784250     -0.506195     -1.448673
H       0.484061     -1.221606     -1.709445
H       0.213709     -0.267110      1.213772
H      -0.517072     -1.742777      0.606529
H      -2.068334     -0.365450     -0.903901
