13
Extracted from Q-Chem output
C       1.268153      0.577662     -0.383506
C       0.478310     -0.552395     -0.520408
C      -0.384645     -1.118052      0.545376
C      -1.516667     -0.285182     -0.028459
C      -1.414053      1.032212      0.197404
N      -0.793913      2.043854      0.332491
H       1.691275      0.796846      0.593622
H       0.251358      1.658654     -0.227551
H       1.869126      0.879357     -1.233981
H       0.358978     -0.997494     -1.502611
H      -0.096994     -0.834999      1.555575
H      -0.573499     -2.186321      0.482269
H      -2.201069     -0.695493     -0.755110
