13
Extracted from Q-Chem output
C      -1.366010      0.513227      0.322822
C      -0.457137     -0.660263      0.545385
O       0.728841     -0.791782     -0.320165
C       0.781055     -0.536049      1.342150
C       1.152765      0.330833     -1.095324
H      -2.122459      0.484834      1.110034
H      -1.887051      0.461033     -0.636184
H      -0.836130      1.459861      0.413173
H      -0.988278     -1.611443      0.470111
H       1.070328     -1.549525      1.654498
H       0.441498      0.500352     -1.905079
H       1.257150      1.210757     -0.464419
H       2.122735      0.054811     -1.503737
