13
Extracted from Q-Chem output
C      -1.663600      0.338386      0.199946
C      -0.562502     -0.640191      0.490203
O       0.354797     -0.915219     -0.559864
C       0.760693     -0.231372      0.957041
C       1.476263      0.398695     -0.832605
H      -2.224222      0.539498      1.114915
H      -2.354628     -0.061463     -0.544950
H      -1.260385      1.283763     -0.162314
H      -0.909189     -1.607624      0.852852
H       1.275245     -1.070385      1.440453
H       0.964720      1.351270     -0.826245
H       2.444431      0.469721     -0.349710
H       1.595684      0.011568     -1.846455
