11
smiles: [C:1]([C:3](=[C:2]=[O:6])[H:10])([H:7])([H:8])[H:9].[N:4]#[C:5][H:11]
C       -2.15449400       0.24155300       0.14647400
C        0.03251900      -0.88342200      -0.16036600
C       -0.64913400       0.18409500       0.16484500
N        2.80471300       1.12013200       0.18004500
C        3.19689100       0.11909000      -0.20990300
O        0.63556800      -1.83058800      -0.44899500
H       -2.55074000       0.46021100       1.13997900
H       -2.50684200       1.01734700      -0.53596500
H       -2.58119900      -0.70625000      -0.18109400
H       -0.05990500       1.04475900       0.45450700
H        3.56368800      -0.81579800      -0.57413100
