11
Extracted from Q-Chem output
C      -1.778499     -0.239534      0.008415
C      -0.181762     -0.327177     -0.125564
C      -0.073090      1.011525      0.020623
N       2.338188      1.054412      0.174114
C       2.722496      0.041778     -0.198541
O       0.381083     -1.354992     -0.415606
H      -2.006869     -0.978483      0.775523
H      -2.220215      0.719704      0.279301
H      -2.162823     -0.535876     -0.964103
H      -0.132681      1.492940      0.990307
H       3.073402     -0.904577     -0.548608
