8
Extracted from Q-Chem output
N       1.412837      0.055977     -0.147834
C       0.058731      0.001230     -0.078631
N      -0.780486      0.615740     -0.852686
O      -1.990732      0.182995     -0.408127
N      -1.816728     -0.666308      0.617730
N      -0.592395     -0.795911      0.839226
H       1.902411     -0.223177      0.683624
H       1.806361      0.829453     -0.653303
