18
smiles: [C:1]([C:2](/[C:3](=[C:4](/[C:6](=[C:5]([H:15])[H:16])[H:17])[H:14])[H:12])([H:10])[H:11])([H:7])([H:8])[H:9].[H:13][H:18]
C       -2.68480200      -0.17874100       0.02397700
C       -1.53441000      -0.89996500       0.70909600
C       -0.15696500      -0.46348200       0.31073300
C        0.14912300       0.48503000      -0.56955200
C        2.53406200       0.01584000      -1.08902200
C        1.51843500       0.85943400      -0.94655600
H       -2.64899300      -0.30937700      -1.05975800
H       -2.66508300       0.89304900       0.23324100
H       -3.64222000      -0.56663200       0.37466700
H       -1.62770400      -0.79342900       1.79592900
H       -1.61459400      -1.97738800       0.52295200
H        0.65945800      -0.97882300       0.81270000
H        2.42638300       0.88497300       2.66620800
H       -0.64702900       1.05306500      -1.04303800
H        2.40385600      -1.05362200      -0.96368000
H        3.52497300       0.36600000      -1.35001000
H        1.68795200       1.91661200      -1.13636200
H        2.31193000       0.78743000       1.93690100
