18
Extracted from Q-Chem output
C      -2.005021      0.403396      0.641262
C      -1.328166     -0.960524      0.581624
C       0.198884     -0.901555      0.576101
C       0.786566     -0.224148     -0.637978
C       2.204673      0.258725     -0.616547
C       1.076307      1.247860     -0.637038
H      -1.764306      1.008838     -0.234140
H      -1.685727      0.961377      1.525691
H      -3.090977      0.301608      0.688081
H      -1.651651     -1.563165      1.435626
H      -1.667163     -1.496515     -0.311554
H       0.593591     -1.921074      0.638486
H       0.548553     -0.383676      1.477337
H       0.445169     -0.632951     -1.584746
H       2.757352      0.145084      0.308253
H       2.803813      0.147317     -1.510590
H       0.905454      1.810645     -1.545614
H       0.872649      1.798757      0.273060
