13
Extracted from Q-Chem output
C      -1.168997     -0.796091      0.101882
C       0.040903      0.110896      0.148414
C       1.358604     -0.628749      0.096305
C      -0.357725      2.223540     -0.965443
O      -0.012877      0.987724     -1.023953
H      -1.160279     -1.473068      0.957537
H      -2.092308     -0.216214      0.131381
H      -1.162268     -1.392219     -0.812184
H       1.448502     -1.287867      0.961086
H       2.198123      0.066646      0.103746
H       1.418513     -1.235897     -0.808273
H      -0.572141      2.454259      0.117963
H      -0.004596      0.770418      1.021915
