17
Extracted from Q-Chem output
C      -1.708986     -0.391758      0.644778
C      -1.113322      0.107670     -0.632887
C      -0.071888      1.200479     -0.278437
C       0.870492      0.015811     -0.005064
C       2.286430      0.018285      0.265012
O       0.461231     -0.587725      1.263607
C       0.082930     -0.784805     -1.050032
H      -0.165473      0.020718      1.734890
H      -2.315545      0.304043      1.221472
H      -2.010695     -1.430512      0.712375
H      -1.858995      0.342617     -1.400929
H       0.265122      1.755044     -1.153045
H      -0.303427      1.892076      0.533927
H       2.873099     -0.869550      0.076152
H       2.705531      0.801256      0.881778
H       0.004398     -1.859478     -0.891194
H       0.422256     -0.564852     -2.062591
