14
Extracted from Q-Chem output
C      -1.368363     -0.947393      0.201958
C      -0.399126     -0.548518     -0.730973
C       0.216643      0.732024     -0.516289
N      -0.366858      1.929614     -0.820994
C       1.323752      0.443904      0.242315
C       1.305557     -0.972733      0.413141
O       0.594857     -1.502358     -0.654942
H      -2.127189     -0.238438      0.522875
H      -1.675582     -1.987459      0.217621
H      -0.099730     -1.076353      1.135868
H      -0.171904      2.719194     -0.233016
H      -1.291565      1.896862     -1.212351
H       1.941863      1.128477      0.802626
H       2.154080     -1.559783      0.747864
