17
Extracted from Q-Chem output
C       1.688763     -0.549013      0.196067
C       0.565454     -0.234677      1.177132
C      -0.549748      2.219486     -1.460061
C      -0.982740      1.106464     -0.945727
C      -1.419764     -0.002878     -0.426204
C      -0.811514     -0.738731      0.748859
O      -0.819063     -2.135786      0.497938
H       1.494468     -0.132208     -0.793764
H       2.632661     -0.132214      0.549668
H       1.835515     -1.626758      0.092038
H       0.793102     -0.687807      2.144845
H       0.160619      2.219984     -2.278868
H      -0.892965      3.177482     -1.086837
H       0.501195      0.844974      1.338464
H      -2.315828     -0.456359     -0.841883
H      -1.495706     -0.617719      1.594121
H      -0.303688     -2.301635     -0.295029
