13
Extracted from Q-Chem output
C       2.242085      1.200155     -0.298490
C       1.217712      0.620842     -0.077101
C      -0.012734     -0.096744      0.198152
C      -1.131446      0.807527      0.704031
C       0.171307     -1.341339      1.124288
O      -0.233087     -2.159149      0.174364
C      -0.421170     -1.149784     -0.849793
H       3.153181      1.716562     -0.488914
H      -2.019972      0.220496      0.945188
H      -1.393201      1.550316     -0.050663
H      -0.807135      1.324628      1.606397
H       0.266010     -1.309743     -1.678656
H      -1.455527     -1.129097     -1.194399
