13
Extracted from Q-Chem output
C       1.966022      1.755109     -0.702362
C       1.111878      0.980899     -0.379301
C       0.084752      0.044064     -0.017571
C      -1.228606      0.513688      0.492175
C      -0.072234     -0.686734      1.338332
O      -0.427873     -1.862593      0.682121
C      -0.040184     -1.354874     -0.609423
H       2.728952      2.443944     -0.978482
H      -2.131201      0.082539      0.075922
H      -1.259538      1.552251      0.800297
H      -1.097769     -0.041872      1.731472
H       0.913731     -1.780481     -0.920755
H      -0.800767     -1.514445     -1.375766
