14
Extracted from Q-Chem output
C       1.980942      0.820694     -0.314468
N       0.537618      0.852901     -0.327491
C      -0.067264     -0.178004      0.102176
N       0.457866     -1.330833      0.598068
C      -1.557488     -0.157460      0.101642
O      -2.265142     -1.162510      0.487338
N      -2.357570      0.787201     -0.260660
H       2.378844      0.014397     -0.946007
H       2.375543      0.677780      0.700308
H       2.370494      1.762277     -0.696967
H      -0.173084     -2.085619      0.802594
H       1.436541     -1.527871      0.512486
H      -3.110810     -0.239296      0.132705
H      -2.037565      1.678226     -0.607986
