17
smiles: [C:4]([C:5](=[O:6])[H:15])([H:12])([H:13])[H:14].[O:1]([C:2]([C:3](=[C:7]([H:16])[H:17])[H:11])([H:9])[H:10])[H:8]
O        1.52748400       0.21640200       0.62613300
C        1.40757700      -0.91017000      -0.22610000
C        0.49067400      -1.89619100       0.42068500
C       -0.93498400       2.55537200       0.26072200
C       -1.13958400       1.20765200      -0.36251400
O       -0.95477600       0.95714000      -1.52123700
C       -0.54935700      -2.45329500      -0.17684900
H        2.22534000       0.78159100       0.29267400
H        1.01594100      -0.62581000      -1.21079200
H        2.38946800      -1.37998000      -0.37711900
H        0.73698000      -2.15209800       1.44767600
H       -0.21035500       2.47188500       1.07487400
H       -0.58869800       3.27449500      -0.47902300
H       -1.87372700       2.89694700       0.70480700
H       -1.48584000       0.41260300       0.33176500
H       -0.82048700      -2.19946100      -1.19652700
H       -1.16787200      -3.18452000       0.32876400
