9
Extracted from Q-Chem output
C      -1.010783     -0.011406     -0.060950
C       0.477977      0.019137      0.013898
N       1.297378     -0.992951      0.469253
O       0.692814     -1.984471      0.833745
N       1.745605      1.970132     -0.697642
N       1.164198      1.076269     -0.371611
H      -1.402045      0.913362     -0.482149
H      -1.332669     -0.849905     -0.680320
H      -1.432883     -0.155359      0.934927
