13
Extracted from Q-Chem output
O      -1.433556     -2.148918      0.760707
C      -0.942366     -0.939741      0.776268
C      -0.301040      1.751280     -0.159892
N       0.401497      0.607409     -0.724642
C       1.303779     -0.092383      0.121425
C       0.009048     -0.733953     -0.315650
H      -1.103086     -2.698847      0.021561
H      -1.259843      1.863022     -0.666683
H      -0.484478      1.662100      0.914148
H       0.301918      2.638561     -0.357302
H       1.364982      0.201619      1.165945
H       2.219100     -0.462656     -0.325548
H       0.057757     -1.476182     -1.122995
