11
Extracted from Q-Chem output
N       1.600045     -0.011893     -0.203214
C       1.886668     -0.442340      0.971023
C       0.854027     -1.194578      0.076711
N      -0.507108     -1.213974      0.439086
C      -1.299516     -0.242538      0.320195
C      -1.075705      1.110331     -0.318474
O      -0.617469      2.070411      0.232372
H       1.793466      0.758030     -0.825953
H       1.173481     -2.113964     -0.398406
H      -2.331609     -0.392364      0.650766
H      -1.441734      1.177095     -1.366864
