12
Extracted from Q-Chem output
C      -1.658024     -0.030051      0.384888
N      -0.408144     -0.020652     -1.659095
C       0.790820     -0.108960     -1.721518
N       1.619620     -0.453747     -0.320540
C       1.154591      0.449093      0.546482
O       0.202857      0.234160      1.315401
H      -1.802460      0.025301      1.450897
H      -1.950406      0.826849     -0.198519
H      -1.807693     -0.989122     -0.082359
H       1.524684     -0.025852     -2.515930
H       1.211738     -1.354211     -0.079297
H       1.573689      1.459197      0.458555
