12
smiles: [N:1]([C:2]1=[C:4]([H:12])[C:3]1([H:10])[H:11])([H:8])[H:9].[O:5]=[C:6]=[O:7]
N        0.54094200       1.52491900       1.07583700
C       -0.32021300       0.57918800       0.62695600
C       -1.38641600       0.36163600      -0.38023500
C       -0.90599400      -0.56941800       0.70805100
O        1.17022600      -2.70678600      -0.93522100
C        1.51964500      -1.63854500      -1.20672000
O        1.86904900      -0.57029300      -1.47820800
H        0.80653900       2.23756300       0.42035400
H        1.27236200       1.22470600       1.69651600
H       -2.34061000       0.88317000      -0.27319000
H       -1.11212700       0.17487200      -1.42121900
H       -1.05443300      -1.51983900       1.18339900
