12
Extracted from Q-Chem output
N      -1.887757     -0.629675      0.609868
C      -0.725228      0.207461      0.643875
N       0.489989     -0.576785      0.779029
C       1.250990     -0.161517     -0.145953
O       2.490109     -0.574963     -0.395955
C       0.593788      0.875825     -0.975304
N      -0.575921      1.089120     -0.538823
H      -1.805233     -1.311271     -0.133943
H      -2.710137     -0.067797      0.434629
H       2.713007     -1.251482      0.254123
H       1.027965      1.372854     -1.835928
H      -0.800891      0.883930      1.503012
