13
Extracted from Q-Chem output
O       1.033239      1.518683      0.905054
C       1.666198      0.728246      0.260994
C       1.170491     -0.628788     -0.183957
C       0.116730     -1.236631      0.709209
C      -1.580548      0.384076     -0.230870
N      -1.068778     -0.710354      0.596922
H       2.697986      0.972310     -0.065287
H       2.037515     -1.290596     -0.232051
H       0.841843     -0.490274     -1.226876
H      -1.546902      1.321778      0.321746
H      -0.985013      0.492089     -1.134405
H      -2.608853      0.162779     -0.517261
H      -1.766233     -1.102513      1.212746
