13
Extracted from Q-Chem output
O       1.156859      1.913958      0.480536
C       1.715136      0.913366      0.119240
C       1.045132     -0.424922     -0.029335
C      -0.207519     -0.626013      0.799056
C      -1.489617      0.195087     -0.190841
N      -1.216371     -1.234671     -0.007793
H       2.784766      0.945627     -0.170601
H       1.742107     -1.196513      0.315924
H       0.916122     -0.608006     -1.109417
H      -0.834210      0.727116      0.645032
H      -1.205474      0.570476     -1.167387
H      -2.473924      0.495818      0.153392
H      -1.933306     -1.613281      0.599577
