16
Extracted from Q-Chem output
C      -1.985864     -0.395488     -0.059510
C      -1.321163      0.833282      0.495232
N       0.021195      0.419252      1.601241
C       0.132881      0.981199      0.255664
C       0.879269      0.127576     -0.730248
C       2.195125     -0.424624     -0.422616
O       1.037352     -1.251761     -0.439447
H      -2.477518     -0.067604     -0.981851
H      -2.781038     -0.745492      0.599564
H      -1.332426     -1.235903     -0.314710
H      -1.032354      0.860813      1.834893
H       0.059565     -0.596124      1.549187
H       0.532416      1.995490      0.258348
H       0.647788      0.336423     -1.772817
H       2.904914     -0.614788     -1.221162
H       2.622151     -0.251356      0.560884
