10
Extracted from Q-Chem output
C      -2.142925     -0.266796     -0.291494
N      -0.928733     -0.665190      0.397727
N       3.155174      1.066990      0.795794
C       2.150192      0.396811      0.744720
N       1.150071     -0.305407      0.873339
N      -0.007725      0.109861      0.186730
H      -2.443108     -1.090039     -0.941554
H      -2.015591      0.650833     -0.869366
H      -2.924664     -0.138959      0.458832
H       3.892478      0.938800      0.118387
