10
Extracted from Q-Chem output
C      -1.410192      0.037253      0.141593
N       0.020143     -0.086539     -0.029594
N       0.931629      0.286329      0.887738
C       2.156900     -0.063174      0.340513
N       1.864911     -0.651091     -0.881735
N       0.586355     -0.704913     -1.027738
H      -1.731838     -0.544274      1.004052
H      -1.879324     -0.342116     -0.761968
H      -1.668551      1.084716      0.287117
H       1.709684      1.166587      0.699814
