11
Extracted from Q-Chem output
C      -0.651318     -0.273786      0.719031
C      -0.010539      0.958121      0.211865
N      -0.783131      1.819353      0.797492
O       1.032365      0.933146     -0.454618
C       0.779470     -1.287131     -1.133317
O       0.411443     -1.413300     -2.236461
H      -1.705642     -0.454981      0.541701
H      -0.214492     -0.736706      1.600537
H      -0.052291     -1.230127     -0.237399
H      -0.342256      2.707725      1.025613
H       1.787357     -1.346712     -0.706490
