9
Extracted from Q-Chem output
N       2.938188     -0.193572      0.417352
C       1.890512     -0.146217     -0.074314
C       0.687970      0.005579     -0.743442
C      -0.439787     -0.726378     -0.479016
N      -1.603501     -0.701728     -0.014886
N      -0.975150      2.847317      1.331398
N      -0.388487      2.070861      0.845716
H       0.025835     -1.586158     -1.084756
H      -2.120180     -1.555695     -0.191654
