14
Extracted from Q-Chem output
C      -1.406310     -1.046638      0.309664
C      -0.089286     -0.314759      0.526695
C       0.944027     -0.449356     -0.587926
C       1.271711      0.986756     -0.886908
O      -1.089937      1.764571      1.304489
C      -0.289640      1.202098      0.620945
N       0.627764      1.880142     -0.252521
H      -2.111833     -0.795810      1.101495
H      -1.256794     -2.127497      0.306651
H      -1.856730     -0.762241     -0.644128
H       0.340105     -0.625183      1.483214
H       1.841360     -1.003856     -0.305747
H       0.542657     -0.933318     -1.483550
H       2.022202      1.270059     -1.622072
