14
Extracted from Q-Chem output
C      -1.483591     -1.094878      0.159179
C      -0.266425     -0.331123      0.624922
C       0.988860     -0.391782     -0.322358
C       1.164908      1.144100     -0.409766
O       1.069658      1.624988      0.878483
C      -0.272289      1.165650      0.341086
N      -0.488296      1.706097     -0.772825
H      -2.327675     -0.932705      0.831275
H      -1.274310     -2.165918      0.135356
H      -1.775548     -0.773080     -0.841235
H      -0.003358     -0.548831      1.657232
H       1.868524     -0.890687      0.083806
H       0.715052     -0.820487     -1.286264
H       1.781240      1.658296     -1.138770
