15
Extracted from Q-Chem output
C      -1.060714      0.611502     -0.652551
C      -1.630598     -0.239218      0.415569
C      -0.172776      0.134792      0.568003
C       0.877189     -0.918131      0.245159
C       1.969415     -0.329316     -0.617369
O       1.997333     -0.478412     -1.810093
C       0.225020      1.433466      0.950357
H      -0.714423      0.169936     -1.578587
H      -1.367259      1.645506     -0.732194
H      -2.329880      0.226983      1.097421
H      -1.835908     -1.276268      0.180160
H       1.297543     -1.281213      1.186131
H       0.437450     -1.762227     -0.288906
H       2.734091      0.275908     -0.100987
H      -0.673883      1.989630      1.264614
