15
Extracted from Q-Chem output
C      -1.413147      0.353980     -0.758377
C      -1.628026     -0.112366      0.640440
C      -0.216683      0.078171      0.111045
C       0.808403     -1.016309     -0.123754
C       2.046472     -0.108241     -0.107011
O       2.145345      0.789636     -0.938020
C       0.594451      1.064582      0.803257
H      -1.608187     -0.348149     -1.559017
H      -1.628409      1.389130     -0.990825
H      -1.991650      0.595029      1.375135
H      -1.928532     -1.137290      0.817010
H       0.838363     -1.745225      0.687313
H       0.717690     -1.524462     -1.085821
H       2.883225     -0.359545      0.562158
H       0.339100      2.118441      0.604890
