11
Extracted from Q-Chem output
O       1.496882     -0.941195     -1.668637
C       1.162355     -0.274634     -0.788956
O      -0.225286     -1.587049      1.345956
C      -0.958795     -1.143166      0.493591
C      -0.855766      0.144944     -0.213858
C       0.006988      1.170561      0.252684
C       1.301370      0.732842      0.165323
H      -1.843107     -1.726488      0.168691
H      -1.757238      0.406010     -0.762182
H      -0.297965      2.162150      0.573787
H       2.224536      1.033356      0.638574
