13
Extracted from Q-Chem output
O      -0.812834      1.214162      0.814537
C      -1.294634     -0.036107      0.304376
C      -0.232543     -0.620180     -0.578703
C       1.080284     -0.753984     -0.046433
O       1.735743      0.715772     -0.790826
H      -1.407437      1.514492      1.503024
H      -2.212282      0.115196     -0.275114
H      -1.545286     -0.686844      1.156089
H       0.624242      0.478022     -1.130871
H      -0.549440     -1.330670     -1.332901
H       1.275601     -0.534741      1.000167
H       1.764376     -1.471471     -0.482793
H       1.628343      1.412482     -0.128367
