12
Extracted from Q-Chem output
C       1.828434      0.792262      0.201060
O       2.092486     -0.549494      0.420203
C       0.836644     -0.269145     -0.195110
C      -0.315226     -0.129009      0.626983
C      -1.563615      0.018744     -0.194143
O      -2.000861     -1.334982     -0.110035
H       1.651478      1.392524      1.087662
H       2.348411      1.274295     -0.622729
H       0.802075     -0.528363     -1.254331
H      -2.077560     -1.553934      0.825755
H      -1.440913      0.229598     -1.262509
H      -2.286262      0.719015      0.232736
