12
Extracted from Q-Chem output
C       1.846074      0.651834      0.237903
O       1.826959     -0.741078      0.408667
C       0.709682     -0.153750     -0.238722
C      -0.531957     -0.044328      0.533831
C      -1.757840      0.087741     -0.274764
O      -1.646141     -1.312354      0.005859
H       1.734830      1.234409      1.147578
H       2.549682      1.033611     -0.496182
H       0.650395     -0.375524     -1.304901
H      -1.161380     -1.159504      1.019031
H      -1.657250      0.256935     -1.345357
H      -2.633401      0.565225      0.158627
