18
Extracted from Q-Chem output
C       2.417113     -0.072561      1.095986
O       1.830403      0.901574      0.318144
C       0.284040      0.015491     -1.004108
C      -1.147206      0.180622     -0.867855
C      -0.762627      1.038865      0.372786
C      -1.969320     -1.054057     -0.564713
H       1.674146     -0.695679      1.638703
H       3.086459      0.351570      1.858294
H       3.031972     -0.765202      0.495231
H       0.859045      0.613422     -1.693678
H       0.748577     -0.897202     -0.653512
H      -1.590588      0.793450     -1.650090
H      -1.054370      2.076364      0.240668
H      -1.159291      0.583769      1.277069
H       0.474766      1.082697      0.541385
H      -2.071627     -1.691469     -1.445452
H      -1.502556     -1.642288      0.228920
H      -2.969253     -0.771830     -0.231047
