13
Extracted from Q-Chem output
C       0.819609      0.685398     -0.067374
C      -0.694049      0.815778      0.082692
C      -1.160837     -0.562327     -0.367764
O      -0.137244     -1.470563      0.014044
C       1.046560     -0.761444      0.356961
H       1.109798      0.827520     -1.111273
H       1.382093      1.393787      0.540670
H      -1.123496      1.622345     -0.511573
H      -0.958674      0.984575      1.129374
H      -2.097133     -0.876409      0.098464
H      -1.292623     -0.596181     -1.456866
H       1.209042     -0.835463      1.439260
H       1.896954     -1.227016     -0.146616
