13
Extracted from Q-Chem output
C       0.810657      0.747591      0.165785
C      -0.725070      0.844190     -0.068547
C      -1.153858     -0.596012      0.078276
O      -0.177934     -1.283759      0.634829
C       0.996602     -0.731159      0.409982
H       1.386354      1.101980     -0.688665
H       1.124234      1.336574      1.033202
H      -0.974982      1.252411     -1.047424
H      -1.209497      1.480529      0.678718
H      -2.148518     -0.961716      0.283651
H      -0.239250     -1.046629     -1.537430
H       1.830483     -1.211864      0.898013
H       0.562406     -1.100232     -1.414044
