14
Extracted from Q-Chem output
C       1.048942      0.449386     -0.553044
C       0.247716      0.939933      0.638597
C      -1.188393      0.931247      0.398539
C      -0.464281     -1.172710     -0.591819
C       0.835659     -0.882618      0.144348
O       0.582129     -0.236520      1.411977
H      -0.381196     -0.068698     -1.167454
H       2.013674      0.844469     -0.861312
H       0.636747      1.867806      1.077786
H      -1.854253      0.817951      1.249666
H      -1.585273      1.448479     -0.468256
H      -1.319058     -1.602151     -0.078101
H      -0.248250     -1.750935     -1.493583
H       1.563111     -1.688169      0.221798
