16
Extracted from Q-Chem output
C      -1.900979      0.446183      1.062628
C      -1.731689     -0.627752      0.122975
N      -0.691371     -0.602750     -0.778144
C       0.550284     -0.393797     -0.261519
O       0.865808     -0.372191      0.920250
O       1.450151     -0.225185     -1.243873
C       2.784033      0.006005     -0.817140
H      -1.019647      0.839841      1.552332
H      -1.546623      1.627352     -0.330557
H      -2.864155      0.601675      1.542448
H      -1.492037     -1.259769      1.054087
H      -2.659929     -1.013307     -0.296527
H      -1.130590      1.170810     -0.860314
H       3.370515      0.106494     -1.727673
H       2.852107      0.918476     -0.222725
H       3.153851     -0.829047     -0.221335
