13
smiles: [C:1]1([H:7])([H:8])[O:3][C:4]([H:11])=[N:5][C:6]1([H:12])[H:13].[C:2]([H:9])[H:10]
C        0.75277700      -0.41869300       0.52761400
C       -1.47136900      -1.57466300      -0.07281700
O       -0.62844900      -0.28993400       0.13685700
C       -0.72909600       0.92261200      -0.44391200
N        0.28995600       1.65359100      -0.55029500
C        1.39577300       0.89533000       0.04246600
H        0.78782700      -0.54727500       1.60991800
H        1.15966600      -1.30921500       0.04859700
H       -1.68384000      -1.32936200      -1.13423800
H       -2.42737000      -1.30608800       0.42323800
H       -1.72431700       1.17920600      -0.78680100
H        1.84168300       1.46898600       0.85627300
H        2.16966700       0.73058500      -0.70907600
