16
smiles: [C:1]([C:2]([O:3][C:4]([H:12])([H:13])[H:15])([H:10])[H:11])([H:7])([H:8])[H:9].[C:5]([O:6][H:16])[H:14]
C       -1.75764000      -0.82210600       0.25571700
C       -0.97899500       0.18070200      -0.56321600
O        0.37878400      -0.18878500      -0.56317700
C        1.18065400       0.69381600      -1.29842900
C        1.52356100       0.11959000       2.47298600
O        1.56344700      -0.93050600       1.70503400
H       -1.65670200      -1.82207300      -0.16819800
H       -2.81660200      -0.55849300       0.27363600
H       -1.38861500      -0.84555800       1.28190200
H       -1.09060600       1.19246100      -0.14451500
H       -1.35777400       0.21419800      -1.59608700
H        1.13864900       1.71233400      -0.88888100
H        0.87603500       0.73264500      -2.35325800
H        0.97313600       0.91812100       1.91130200
H        2.20687800       0.33280000      -1.24102400
H        1.13428500      -0.83081900       0.84061800
