16
Extracted from Q-Chem output
C      -2.380128     -0.689470      0.052185
C      -1.241608      0.018353     -0.643821
O      -0.120707      0.023716      0.210398
C       1.013765      0.642811     -0.348980
C       2.150633      0.468950      0.631457
O       2.439261     -0.891793      0.856337
H      -2.110026     -1.722093      0.277842
H      -3.268119     -0.696361     -0.581955
H      -2.628000     -0.186580      0.987791
H      -1.521533      1.052232     -0.892132
H      -0.987228     -0.486827     -1.586584
H       0.824612      1.710899     -0.530262
H       1.269636      0.169063     -1.307247
H       1.897106      0.978209      1.570420
H       3.056014      0.927574      0.229748
H       1.606323     -1.318683      1.074803
