16
Extracted from Q-Chem output
C      -2.145250     -0.721788      0.049154
C      -0.959224     -0.136899     -0.676604
O      -0.254979      0.716555      0.219894
C       0.899102      1.237186     -0.300080
C       2.360482     -0.248794      0.468907
O       1.511680     -1.218589      0.854683
H      -1.819107     -1.337441      0.888512
H      -2.726417     -1.349716     -0.627647
H      -2.793604      0.068821      0.428963
H      -1.281726      0.454239     -1.543553
H      -0.289168     -0.927502     -1.029038
H       1.219412      2.104276      0.268955
H       0.827593      1.466542     -1.370701
H       2.548398      0.478580      1.269427
H       1.935922      0.367791     -0.507487
H       0.969846     -0.953844      1.608647
