12
smiles: [C:1]1([H:7])([H:8])[C@:2]2([H:9])[O+:3]=[C-:4][O:5][C@:6]12[H:12].[H:10][H:11]
C        1.61063300       0.10611800       0.10093500
C        0.34889700      -0.58878800       0.50594400
O       -0.41741200       0.09438700       1.49523800
C       -0.85391100       1.26867600       1.06745100
O       -0.44069700       1.43862300      -0.17893800
C        0.33388500       0.33604600      -0.64477600
H        2.35998000      -0.49713000      -0.39414100
H        1.98554700       0.89992700       0.73409700
H        0.20673400      -1.65842300       0.50261000
H       -2.73512100      -1.14182200      -0.98285500
H       -2.75746300      -0.48751500      -0.62818100
H        0.17779700       0.09978900      -1.68600700
