12
Extracted from Q-Chem output
C       1.517077      0.302682      0.290026
C       0.432853     -0.727976      0.379862
O      -0.710799     -0.336212      1.122646
C      -1.419563      0.526246      0.377126
O      -0.656854      1.042606     -0.599730
C       0.469458      0.197487     -0.776307
H       2.513393     -0.041001      0.045074
H       1.457092      1.147640      0.963455
H       0.603009     -1.794733      0.356354
H      -2.394239     -0.540233     -0.506855
H      -2.543549      0.279777      0.144540
H       0.671053     -0.064017     -1.805094
