15
Extracted from Q-Chem output
C      -1.468284     -0.862658     -0.418991
N      -0.446034     -0.189587      0.355927
C      -0.604964      1.241633      0.497613
C       0.981002     -0.687333     -0.002545
C       2.080766      0.201695     -0.157094
O       3.167438     -0.127255     -0.603133
H      -1.382592     -0.588220     -1.476664
H      -2.455415     -0.592060     -0.043063
H      -1.342030     -1.941228     -0.327797
H      -1.622391      1.455301      0.825390
H       0.089512      1.620925      1.246405
H      -0.407730      1.752023     -0.452162
H       0.940266     -1.601458     -0.576749
H       0.242953     -0.765916      1.117264
H       1.937253      1.240022      0.211059
