16
Extracted from Q-Chem output
C       1.996059     -0.168489     -0.238223
C       0.718839     -0.592882      0.470744
C      -0.529986      0.180159      0.098798
C      -1.785351     -0.285852      0.790300
C      -0.642150      0.905150     -1.165791
O      -0.381743      1.596560      0.047299
H       2.149099      0.908245     -0.149033
H       2.860231     -0.667897      0.201630
H       1.975709     -0.425256     -1.299068
H       0.523548     -1.655032      0.293071
H       0.848904     -0.485360      1.553043
H       0.176346      0.901932     -1.879118
H      -1.658080     -0.241906      1.874467
H      -2.631413      0.345774      0.520154
H      -2.016909     -1.317972      0.518468
H      -1.626678      1.075268     -1.594595
