12
Extracted from Q-Chem output
C       2.764060      0.673736      0.748986
C       1.580119      0.499320      0.733594
C       0.136724      0.278221      0.697616
C      -0.228262     -0.834483     -0.229857
C      -1.319438     -0.838765     -1.037150
C      -2.226918      0.247335     -0.954847
H       3.815427      0.839240      0.766479
H      -0.414816      1.173958      0.398894
H      -0.208854      0.027655      1.706849
H      -1.483108     -1.727892     -1.648476
H       0.419408     -1.708505     -0.203795
H      -3.207495     -0.083836     -1.337309
