12
Extracted from Q-Chem output
C       2.991148     -0.110963      0.439404
C       1.800508     -0.121926      0.564359
C       0.346075     -0.133303      0.686392
C      -0.346053     -0.100429     -0.686306
C      -1.800473     -0.112076     -0.564289
C      -2.991122     -0.123354     -0.439469
H       4.050474     -0.101255      0.336249
H       0.023685      0.726139      1.278388
H       0.032414     -1.026061      1.231881
H      -0.032592      0.792412     -1.231769
H      -0.023601     -0.959797     -1.278371
H      -4.050463     -0.133364     -0.336470
