16
Extracted from Q-Chem output
C       1.687632     -1.017771     -0.420433
C       0.633136     -0.357394      0.394222
N       0.775114      0.812201      1.032893
C      -0.462461      1.345514      0.705441
O      -1.212191      1.936776      1.698163
C      -0.800471     -0.030175      0.064660
C      -1.249393     -0.158230     -1.374164
H       1.844595     -0.501129     -1.377477
H       1.419392     -2.051263     -0.641031
H       2.641082     -1.023751      0.111971
H      -1.330152      1.336197      2.445781
H       1.557323      1.208077      1.535391
H      -1.490739     -0.528804      0.749671
H      -0.589970      0.402639     -2.037322
H      -2.258189      0.236316     -1.496790
H      -1.254658     -1.204724     -1.689284
