16
Extracted from Q-Chem output
C       1.443559     -1.045472     -0.150486
C       0.496487     -0.162291      0.610297
N       0.733623      1.298774      0.506477
C      -0.621720      1.361319      0.727989
O      -0.896240      1.316693      1.999797
C      -0.986334      0.072314      0.058706
C      -1.110606     -0.074604     -1.441265
H       1.529028     -0.781034     -1.207687
H       1.114981     -2.083823     -0.075849
H       2.437693     -0.971172      0.294579
H      -0.236485      0.360367      2.100058
H       1.289959      1.777196      1.202474
H      -1.794356     -0.410908      0.597758
H      -0.367220      0.525839     -1.965360
H      -2.102213      0.245049     -1.763797
H      -0.985621     -1.117955     -1.736154
