9
Extracted from Q-Chem output
O      -0.942372      1.289307     -0.450974
C      -0.823716     -0.037393     -0.353570
C       0.822062     -0.388725      0.220766
C       1.992875     -0.198488     -0.014380
C      -1.490671     -0.734791      0.772099
N      -0.289619     -0.927944      1.164592
H      -1.582655      1.592600      0.203935
H      -0.715833     -0.585562     -1.282253
H       3.017096     -0.017196     -0.243013
