10
Extracted from Q-Chem output
O       1.669456     -0.353973      0.620958
C       0.621438     -0.030931     -0.073336
C       0.265883      1.395030     -0.261163
N      -0.879266      1.459274      0.280758
N      -1.125985      0.133594      0.797152
C      -1.113781     -0.877426     -0.139032
N      -0.025698     -1.005237     -0.839460
H       1.750454     -1.319785      0.625585
H       0.775200      2.186563     -0.796562
H      -1.943460     -1.580170     -0.218230
