13
Extracted from Q-Chem output
O       0.968455     -2.416684      1.469808
C       1.302034     -1.409152      1.028039
C      -1.322723      0.049788     -1.088389
C      -0.756461      0.504562      0.257310
C       0.724859      0.800038      0.136687
O       1.122439      1.852973     -0.302573
C       1.680725     -0.252192      0.521002
H      -0.855254     -0.877725     -1.425465
H      -2.396548     -0.123762     -1.012997
H      -0.945017     -0.252199      1.024074
H      -1.241010      1.428464      0.575245
H       2.740411     -0.085410      0.384503
H      -1.150054      0.812314     -1.848346
