13
Extracted from Q-Chem output
O       0.587467     -2.345492     -0.578709
C       0.331926     -1.198002     -0.344047
C      -1.073251     -0.631280     -0.174587
C      -0.901385      0.752017      0.449069
C       0.548229      1.150533      0.198043
O       0.983176      2.263951      0.288991
C       1.347473     -0.083049     -0.177399
H      -1.686115     -1.322034      0.402981
H      -1.514297     -0.571966     -1.173960
H      -1.037577      0.722087      1.534360
H      -1.572966      1.518069      0.064404
H       2.068953     -0.328628      0.605382
H       1.918369      0.073794     -1.094526
