17
smiles: [C:1]1([H:8])([H:9])[C:2]([H:10])([H:11])[O:3][C:4]([H:12])=[C:5]([H:14])[C:6]([H:15])=[C:7]1[H:17].[H:13][H:16]
C       -1.44410600      -0.23374100      -0.12737100
C       -0.75408600      -1.35247800       0.64814100
O        0.53402400      -1.69672100       0.16555800
C        1.53066000      -0.80461700       0.28781800
C        1.47855400       0.52024700       0.47321200
C        0.33281500       1.42237400       0.49207600
C       -0.93818700       1.13263100       0.21120300
H       -2.51501600      -0.29060000       0.08673400
H       -1.33658200      -0.43831700      -1.19762800
H       -0.67569300      -1.08117200       1.70560900
H       -1.32696500      -2.27583100       0.56762900
H        2.49084100      -1.30218100       0.20927200
H        0.64096600       0.55409900      -3.09561200
H        2.45033100       0.98881700       0.57340700
H        0.56990800       2.45386600       0.73197300
H        0.75884900       0.67515900      -2.37039100
H       -1.66808700       1.93398700       0.25381300
