8
Extracted from Q-Chem output
N       0.992323     -0.148388     -0.083644
N       0.557988      1.062068      0.154374
C      -0.758088      0.967798      0.168663
C      -1.243209     -0.373916     -0.015766
N      -0.079145     -1.000484     -0.114959
H       1.925118     -0.433879      0.165333
H      -1.349642      1.858545      0.307793
H       0.080829     -1.972858     -0.321766
