8
Extracted from Q-Chem output
N       1.084395     -0.138136      0.010981
N       0.542820      1.049489      0.084944
C      -0.753952      0.836871      0.158822
C      -1.060709     -0.558655      0.254732
N       0.197169     -1.142898      0.175566
H       2.080031     -0.280378      0.030406
H      -1.437051      1.669985      0.195224
H      -0.571492     -1.463467     -0.650998
