11
Extracted from Q-Chem output
O       2.204833     -1.073842      0.803405
C       1.142027     -0.779545      0.371533
O       0.142071     -1.761560      0.184122
C      -0.974776     -1.122414     -0.248882
C      -0.746905      0.125974     -0.674679
C      -0.587060      1.345863      0.119219
C       0.627807      0.472685     -0.260756
H      -1.899990     -1.660979     -0.099744
H      -0.963528      1.353721      1.135532
H      -0.572874      2.315641     -0.364327
H       1.336415      0.948720     -0.927029
