17
Extracted from Q-Chem output
C       2.448570     -0.066671      0.563181
O       1.059156     -0.216556      0.736062
C       0.427211     -0.689515     -0.422178
C      -1.093461     -0.412949     -0.393557
C      -1.708809      0.239469      0.817736
C      -1.718707      1.002646     -0.444199
C       0.431400      0.172333     -1.574536
H       2.845925      0.345417      1.489414
H       2.668046      0.616608     -0.263498
H       2.931743     -1.033754      0.369518
H       0.582172     -1.770882     -0.531256
H      -1.673846     -1.187403     -0.872739
H      -2.629038     -0.215101      1.160319
H      -1.017769      0.544119      1.590247
H      -2.637168      1.069637     -1.011544
H      -1.060644      1.850735     -0.533569
H       0.051625     -0.421463     -2.421275
