13
Extracted from Q-Chem output
C      -0.909707     -1.465656      0.256465
C      -0.296301      1.518090      0.254395
C       0.724661      0.524583      0.580356
C       0.291910     -0.711387     -0.291207
C       0.008448      2.396264     -0.782971
N       0.155568      3.179955     -1.627963
H      -0.718300     -1.821990      1.270514
H      -1.801059     -0.839818      0.283058
H      -1.122975     -2.335149     -0.367443
H       0.661019      0.215334      1.624648
H       1.752503      0.792855      0.319879
H       1.171383     -1.357379     -0.317403
H       0.115494     -0.398454     -1.323486
