14
Extracted from Q-Chem output
C       2.077460      0.676011     -0.426555
N       0.783155      0.630244     -0.206018
C       0.014722     -0.404574      0.163606
N       0.654133     -1.598734      0.521024
C      -1.379991     -0.187428      0.420338
O      -2.060953     -0.973410      1.060922
N      -1.914568      1.029267     -0.060552
H       2.658443     -0.224148     -0.318544
H       0.261465      1.496069     -0.293942
H       2.519998      1.629952     -0.658115
H       0.014560     -2.152882      1.076360
H       0.948435     -2.148780     -0.278643
H      -1.847054      1.138977     -1.062014
H      -2.872941      1.125659      0.242868
