12
Extracted from Q-Chem output
N       2.154627     -0.173302      0.814775
C       0.959714     -0.048922      0.394091
C       0.154183      1.154074      0.069665
C      -1.022555      0.781934     -0.418199
C      -1.121694     -0.714467     -0.458322
N       0.129799     -1.110386      0.132805
H      -1.234739     -1.073372     -1.489263
H       2.580218      0.736873      0.946741
H       0.513993      2.162641      0.214522
H      -1.823390      1.429789     -0.746740
H      -1.985789     -1.075367      0.111752
H       0.492186     -2.044893      0.105042
