11
Extracted from Q-Chem output
N       2.874843      0.724816      0.119385
C       1.677357      0.453544      0.189496
C       0.447116      0.023523      0.198531
C      -0.654766     -0.169156     -0.808799
C      -1.449171     -0.624213      0.427732
O      -0.309106     -0.395653      1.290035
H       3.070895      1.718990      0.240991
H      -1.018816      0.738097     -1.287628
H      -0.471163     -0.936934     -1.558382
H      -2.290139      0.010119      0.711950
H      -1.748398     -1.673188      0.441985
