18
smiles: [C:1]([H:7])([H:8])([H:9])[H:10].[C:2](=[C:3]([H:11])[H:12])([C:4]([H:13])([H:14])[H:15])[C:5]([O:6][H:18])([H:16])[H:17]
C       -1.35595000       2.24969900      -1.18998700
C        0.21541200      -1.11610900       0.31638100
C       -0.75162400      -1.49013300      -0.51037600
C        0.31795600      -1.59601300       1.73277600
C        1.30368300      -0.18873700      -0.14439800
O        1.38126900       0.91394300       0.74447100
H       -0.89331500       2.13078300      -2.16861100
H       -0.60350200       2.11554000      -0.41434100
H       -1.78665300       3.24673600      -1.11107700
H       -2.14050000       1.50482400      -1.06536700
H       -0.80771900      -1.10892500      -1.52372300
H       -1.52034200      -2.19045600      -0.20462700
H       -0.47759400      -2.30130300       1.97164600
H        1.28092000      -2.08565300       1.90532100
H        0.26205400      -0.75233400       2.42260200
H        2.25587400      -0.73869800      -0.14968200
H        1.09904000       0.14314500      -1.16859000
H        2.18245300       1.40434500       0.55838200
