18
Extracted from Q-Chem output
C       2.053672      0.026220     -0.374553
C       0.807838     -0.565040      0.239416
C      -0.628177     -0.019326     -0.032733
C      -1.721770     -1.057816     -0.151413
C      -0.812649      1.192736     -0.917612
C       0.028139      0.149231      1.260306
N      -0.069547      0.675723      2.394921
H       2.195708     -0.330768     -1.396788
H       2.935681     -0.255837      0.203704
H       2.015577      1.115535     -0.399216
H       0.778770      0.512376      2.938106
H       0.830833     -1.647142      0.346254
H      -1.549183     -1.897983      0.523261
H      -2.691462     -0.624296      0.102499
H      -1.777238     -1.443892     -1.172729
H      -1.779533      1.657776     -0.715282
H      -0.047016      1.949251     -0.747777
H      -0.788340      0.908726     -1.973142
