13
Extracted from Q-Chem output
O      -2.722368      0.574745      0.888590
C      -1.712381      0.433902      0.262822
C      -0.433824     -0.090394      0.887278
N       0.617329     -0.152161     -0.125211
C       0.654157     -1.271637     -0.835366
C       1.306988      0.968099     -0.293932
H      -1.636561      0.675357     -0.816828
H      -0.604985     -1.084306      1.300055
H      -0.124290      0.567789      1.698698
H       1.352534     -1.350137     -1.652523
H       0.017571     -2.088405     -0.545260
H       2.040641      1.017285     -1.081980
H       1.148354      1.779585      0.393556
