14
smiles: [C:1]([C:2]([O:3][C:4](=[C:5]=[O:6])[H:12])([H:10])[H:11])([H:7])([H:8])[H:9].[H:13][H:14]
C       -2.10562900      -0.40004000      -0.52038600
C       -0.70293800      -0.33530100       0.03082300
O       -0.51382900       0.93348200       0.62863800
C        0.72599900       1.12557800       1.17837800
C        1.71435300       0.25620800       1.18435600
O        2.61561200      -0.48118600       1.21093000
H       -2.25915500       0.37483500      -1.27211100
H       -2.83734300      -0.25913500       0.27570600
H       -2.28003500      -1.37189300      -0.98439600
H       -0.53983300      -1.11910800       0.78381700
H        0.03976700      -0.47683900      -0.76683000
H        0.88774100       2.08404200       1.64763500
H        2.54980900      -0.19443900      -2.25006600
H        2.88079000      -0.24164300      -1.58476300
