11
Extracted from Q-Chem output
N      -1.687917     -0.352812      0.137203
C      -0.492386      0.191732     -0.462349
C      -0.000762      1.481506      0.207241
O       1.201057      1.230325      0.620660
C       1.663374     -0.122555      0.315817
O       2.740233     -0.493042      0.634669
N       0.636088     -0.691547     -0.327252
H      -2.500078      0.170010     -0.161079
H      -1.644566     -0.302707      1.148213
H      -0.702686      0.420165     -1.512220
H       0.654193     -1.656579     -0.600550
