10
smiles: [C:4]=[N:5][H:7].[O:1]([C:2](=[C:3]([H:9])[H:10])[H:8])[H:6]
O       -1.70635600      -0.29856400       0.16389700
C       -0.79975100       0.17019700      -0.73406000
C       -0.08615700       1.26205000      -0.51748800
C        2.25295700      -1.73551400       1.86097900
N        1.64173400      -0.97868800       1.22468000
H       -2.12040700      -1.09150900      -0.17612500
H        1.11815200      -0.32972400       0.67990100
H       -0.69705000      -0.41025800      -1.64727700
H        0.62336500       1.59335400      -1.26115300
H       -0.19452800       1.83416000       0.39470200
