14
Extracted from Q-Chem output
C      -1.245866     -0.395717      0.582155
C      -0.529842      0.897558      0.216312
C       1.033189      0.717107      0.189754
C       1.627063     -0.271225      0.989509
C      -0.618171     -1.044283     -0.681419
C       0.060132      0.287942     -0.970732
H      -2.327692     -0.289690      0.502813
H      -0.977765     -0.838929      1.537920
H      -0.855169      1.913519      0.394493
H       1.501386      1.667659     -0.066036
H       0.040523     -1.892781     -0.514134
H       2.623949      0.090133      1.298348
H      -1.363167     -1.285305     -1.439396
H       0.302162      0.717506     -1.933346
