13
Extracted from Q-Chem output
C       1.995168      1.277224      0.547251
C       0.210140     -0.942599     -0.255509
C      -1.311363     -1.180893     -0.470039
N      -1.495190      0.228416     -0.100687
C      -0.194744      0.460160      0.094885
O       0.376706      1.492575      0.442683
H       2.285253      2.127385     -0.088962
H       2.115951      1.659274      1.572616
H       0.683666     -1.473910      0.565247
H       0.845285     -1.000586     -1.135108
H      -1.779366     -1.876459      0.226029
H      -1.611455     -1.405194     -1.493235
H      -2.300245      0.825048     -0.011394
