9
Extracted from Q-Chem output
N      -0.654915      0.570634      0.930925
C       0.550771      0.749460      0.236765
C       1.032336     -0.651907      0.095747
N       0.036291     -1.472263      0.138817
C      -0.957384     -0.498278      0.116963
H      -1.290326      1.355978      0.925231
H      -0.068698      0.753532     -1.225044
H       2.053521     -0.935859     -0.131067
H      -0.765794      0.209159     -1.259893
