15
Extracted from Q-Chem output
C       0.729040      1.475652      0.135208
C       1.228680      0.795373     -1.054729
C       0.512017     -1.445796      0.267890
O      -0.340647     -0.905994      1.263093
C      -1.255692     -0.065280      0.620927
C      -0.479508      0.660888     -0.480825
C       0.547188     -0.486109     -0.937526
H       0.871632      1.073486      1.141340
H       0.736473      2.562053      0.111973
H       1.495896     -1.592307      0.716923
H       0.136070     -2.418175     -0.070365
H      -1.667719      0.622284      1.360755
H      -2.075374     -0.630442      0.156949
H      -1.099595      1.138261     -1.228679
H       0.412029     -1.010801     -1.881261
