15
Extracted from Q-Chem output
C       0.735355      1.258755      0.160937
C       1.610489      0.165112     -0.493045
C       0.508651     -1.307813      0.152402
O      -0.482179     -1.089840      1.105497
C      -1.379427     -0.085465      0.622137
C      -0.573862      0.667667     -0.410530
C       0.321980     -0.407483     -1.051530
H       0.809150      1.419327      1.238018
H       1.030792      2.183611     -0.340587
H       1.551090     -0.968546      0.574316
H       0.687000     -2.353469     -0.087888
H      -1.680546      0.527629      1.473885
H      -2.269404     -0.557294      0.188087
H      -1.166674      1.308932     -1.059942
H       0.193772     -0.867698     -2.025296
