16
Extracted from Q-Chem output
C       0.803207      0.499865     -1.264359
O       2.039399      0.096146     -0.735391
C      -0.770222     -0.094885      1.907273
C      -0.573910     -0.276519      0.604974
N      -0.216466      0.768505     -0.278163
O       0.158499      1.937413      0.415557
C      -0.788953     -1.598554     -0.071315
H       2.353582      0.791130     -0.151152
H       0.461195     -0.307894     -1.908239
H       0.901835      1.410799     -1.860212
H      -0.594516      0.855312      2.387630
H      -1.114710     -0.920848      2.513349
H      -0.557927      2.553132      0.242617
H      -1.447403     -1.497176     -0.937058
H      -1.244482     -2.296880      0.627444
H       0.157458     -2.024841     -0.410763
