10
Extracted from Q-Chem output
O      -0.140444      1.827618      0.751014
C      -0.086074      0.716833      0.285975
C      -1.248941     -0.236550      0.269831
C       1.646488     -1.201599     -0.118305
O       1.158567     -0.858827     -1.238654
C       1.209677      0.240964     -0.269231
H      -1.498307     -0.519356     -0.755071
H      -2.105504      0.234445      0.744596
H      -0.987679     -1.156925      0.799890
H       1.961257      0.988897     -0.486025
