14
Extracted from Q-Chem output
O      -1.050267     -0.620030      1.219259
C      -0.918345      0.099287      0.009024
C      -0.143747      1.412538      0.236420
O       1.258598      1.194923      0.480928
C       1.740778     -0.015448      0.150578
N       1.130562     -0.850455     -0.587386
C      -0.074488     -0.498803     -1.084436
H      -0.234975     -1.103098      1.383077
H      -1.928824      0.335845     -0.322885
H      -0.236858      2.093314     -0.610428
H      -0.542937      1.880958      1.134638
H       2.732824     -0.195983      0.546274
H      -0.788216     -1.695061     -1.636143
H      -0.971541     -2.197135     -1.036326
