10
Extracted from Q-Chem output
C      -1.227361      0.232592      0.071764
C       0.104466     -0.390691     -0.222396
C       1.323318      0.428427     -0.366996
O       0.928188     -0.665784      0.932166
H      -1.879041     -0.468213      0.596802
H      -1.712666      0.519945     -0.863402
H      -1.097571      1.128900      0.679015
H       0.053408     -1.306377     -0.809122
H       2.091144     -0.114347     -0.928032
H       1.329874      0.347574      1.041397
