11
Extracted from Q-Chem output
C      -1.117161     -1.064062      0.160554
C      -0.086235      0.003242      0.180722
O      -0.090036      0.697580      1.290071
C       0.799747      0.251076     -0.862907
C       1.780684      1.237846     -0.886684
H      -2.103485     -0.621019      0.310729
H      -0.940705     -1.754085      0.988008
H      -1.097273     -1.607792     -0.780181
H       0.682581     -0.407336     -1.720406
H       0.615547      1.368094      1.211283
H       1.779400      1.830861      0.060687
