19
Extracted from Q-Chem output
C       1.982168      0.433921     -0.705925
C       1.223166     -0.864540     -0.513725
C       0.354588     -0.884703      0.643108
C      -0.307916      1.415267      0.496668
C      -1.533043      0.533334      0.496986
C      -1.764846     -0.415348     -0.633830
C      -1.105578     -0.934239      0.603358
H       0.682015      1.128161     -0.252468
H       2.617514      0.450466     -1.595400
H       2.545289      0.747409      0.178029
H       0.720485     -1.162819     -1.433875
H       2.002210     -1.617768     -0.289512
H       0.828493     -0.907271      1.619962
H      -0.520840      2.407652      0.083684
H       0.068715      1.560505      1.508603
H      -2.429642      0.884251      1.003995
H      -2.787972     -0.725854     -0.799482
H      -1.181883     -0.303119     -1.538366
H      -1.649644     -1.597586      1.265313
