16
Extracted from Q-Chem output
C      -1.071320      0.733925     -0.743181
C      -0.560659     -0.418125      0.116632
C      -1.280613     -0.479766      1.468985
C       0.926437     -0.374079      0.457267
O       1.434865      0.819214      0.463548
C       2.193740     -0.075807     -0.772980
H      -0.555255      0.779778     -1.705692
H      -0.923851      1.692366     -0.244036
H      -2.137876      0.616230     -0.945397
H      -0.732310     -1.371795     -0.394231
H      -1.124809      0.445399      2.029638
H      -0.914325     -1.308670      2.076400
H      -2.354384     -0.607474      1.321476
H       3.083540     -0.529854     -0.365872
H       1.639761     -0.734207     -1.452623
H       2.364496      0.861122     -1.310331
