13
Extracted from Q-Chem output
C       1.826434      0.235539     -0.634045
O       0.891333     -0.521877      0.087051
C      -0.191412      0.491729      1.239980
O       0.368798      1.363560      1.724691
C      -1.763063     -0.465552      0.506852
N      -1.374045     -0.746705     -0.728105
H       2.739036     -0.347452     -0.777457
H       2.086165      1.145278     -0.079545
H       1.438634      0.530614     -1.616519
H      -2.538478      0.270903      0.717684
H      -1.697630     -1.262185      1.242021
H      -1.634958     -0.015321     -1.378627
H      -0.075126     -0.794546     -0.510310
