15
Extracted from Q-Chem output
C       2.198368      0.571861     -0.025069
O       0.802452      0.469543     -0.002135
C       0.338712     -0.843331      0.352610
C      -1.148075     -0.974551      0.351225
C      -1.880912      0.263676      0.675884
N      -1.712482     -0.066370     -0.755539
H       2.642724     -0.132431     -0.741500
H       2.630989      0.372823      0.964274
H       2.457582      1.588302     -0.322603
H       0.694310     -1.096573      1.360288
H       0.786238     -1.562620     -0.346851
H      -2.498728     -0.399994     -1.288055
H      -1.381888      1.198639      0.925977
H      -2.904196      0.198411      1.033655
H      -1.074321      0.548663     -1.246066
