13
Extracted from Q-Chem output
O      -1.194932     -0.600449      1.451597
C      -1.260794     -0.645905      0.051932
C      -0.527127      0.499681     -0.641914
N       0.905929      0.269875     -0.870994
C       1.831822      0.242301      0.063982
O       1.472143      0.347610      1.329004
H      -0.286027     -0.392126      1.707174
H      -2.320506     -0.578302     -0.206841
H      -0.884854     -1.600289     -0.343494
H      -0.653950      1.412035     -0.054338
H      -0.964786      0.671527     -1.625678
H       1.226356      0.173931     -1.818156
H       2.622763      0.190299      1.010826
