14
Extracted from Q-Chem output
O       1.632746     -1.282989      0.969758
C       1.186040     -0.659598     -0.114103
C      -0.727746     -0.883931     -0.147630
C      -1.221575      0.524097      0.128214
C      -0.029404      1.432873      0.011108
C       1.141032      0.836909     -0.128186
H       0.317407     -1.296544      0.630271
H       1.439284     -1.112227     -1.086609
H      -0.825984     -1.208591     -1.179494
H      -1.207648     -1.653449      0.476468
H      -2.002996      0.810954     -0.580089
H      -1.663549      0.611826      1.124718
H      -0.144911      2.509113      0.064531
H       2.092653      1.351371     -0.190573
