16
smiles: [H:7][H:12].[O:1]=[C:2]([C:6]([C:5]([C:4](=[C:3]([H:9])[H:10])[H:11])([H:13])[H:14])([H:15])[H:16])[H:8]
O       -1.88785500       0.53576800       0.76503400
C       -1.49502100       1.15399300      -0.18466700
C        0.37777300      -1.49846900      -1.15866800
C        1.03419300      -0.91030000      -0.17163900
C        0.93441500       0.52465800       0.25710500
C       -0.04558900       1.38014300      -0.52688600
H       -0.83912300      -1.27901900       2.39984700
H       -2.21825100       1.64013600      -0.87367600
H        0.52925600      -2.54693800      -1.38201500
H       -0.34261300      -0.97459400      -1.77717900
H        1.73031200      -1.50722600       0.41233300
H       -0.45133000      -1.71371100       2.86354800
H        0.66068600       0.54914800       1.31614500
H        1.93198500       0.97089100       0.19550400
H        0.13620500       2.44497000      -0.33494800
H        0.07744300       1.26213500      -1.60833400
