13
Extracted from Q-Chem output
C       1.798949     -0.055751     -0.187896
C       0.328420      0.086963     -0.019210
C      -0.474825      1.112932      0.263507
C      -1.866323      0.672106      0.311700
C      -2.043322     -0.647154      0.065970
N      -0.558928     -1.069745     -0.162874
H       2.231426     -0.748490      0.540435
H       2.065749     -0.418314     -1.185257
H       2.279992      0.911818     -0.050054
H      -0.125580      2.123705      0.431026
H      -2.687442      1.342571      0.525593
H      -0.518514     -1.494193     -1.087504
H      -0.363850     -1.809908      0.508502
