12
Extracted from Q-Chem output
C      -1.958841     -0.874009     -0.187648
N      -0.763759     -0.099770      0.032726
C       0.347113     -0.618602     -0.277981
C       1.613839      0.079124     -0.127708
N       1.638107      1.296036      0.272165
C       1.528690      2.468373      0.501612
H      -1.767146     -1.871991     -0.606133
H      -2.496420     -0.984731      0.756978
H      -2.619305     -0.329564     -0.866521
H       0.422539     -1.634001     -0.690401
H       2.553930     -0.403023     -0.358077
H       1.534939      2.868851      1.512815
