14
smiles: [C-:5]#[O+:6].[C:1](/[N:2]=[C:3](/[O:4][C:7]([H:12])([H:13])[H:14])[H:11])([H:8])([H:9])[H:10]
C       -1.93159400      -0.45557700      -0.34257800
N       -0.59831100      -0.01486000      -0.00528000
C       -0.48670300       0.92110700       0.82299200
O        0.68008000       1.42805800       1.22909800
C        1.25323600      -2.11020700      -1.49983900
O        0.33752100      -2.57652500      -1.95380300
C        1.84472900       0.84157200       0.66245900
H       -2.72390100       0.09397100       0.18386700
H       -2.09203900      -0.34495800      -1.41696400
H       -2.03615300      -1.51700200      -0.10865900
H       -1.31815800       1.43529400       1.31454100
H        1.88999300      -0.22387100       0.89324300
H        2.68818200       1.36460500       1.10687600
H        1.84727800       0.96150400      -0.42206800
