14
Extracted from Q-Chem output
C      -1.967563     -0.693830     -0.600547
N      -0.682751     -0.186581     -0.169207
C      -0.533357      0.980962      0.413992
O       0.551533      1.460288      0.801015
C       0.589526     -0.932372     -0.352587
O       0.476164     -2.004134     -0.885044
C       2.196417      0.565424      0.600462
H      -2.753260      0.020984     -0.350265
H      -1.955453     -0.862295     -1.677054
H      -2.169247     -1.646556     -0.111919
H      -1.438153      1.584572      0.574805
H       2.518086      1.480334      1.087618
H       2.559867      0.456987     -0.408224
H       2.329051     -0.319708      1.200736
