13
Extracted from Q-Chem output
C      -1.692617      0.395822      0.157940
N      -0.417672      0.083926     -0.516758
C       0.259243     -1.104247     -0.009740
C       1.495150     -0.733387      0.319299
C       1.664581      0.689676      0.048588
C       0.558079      1.290823     -0.450193
H      -1.479212      0.559294      1.212007
H      -2.392233     -0.432065      0.038990
H      -2.092335      1.309169     -0.274909
H      -0.258027     -2.049328      0.043396
H       2.243749     -1.399014      0.728434
H       2.587405      1.220404      0.237905
H      -0.591156     -0.010857     -1.517027
