13
Extracted from Q-Chem output
C      -1.829708      0.339469      0.107018
N      -0.421943      0.097448     -0.176210
C       0.242060     -1.058465      0.208408
C       1.565118     -0.762784      0.269792
C       1.736333      0.602386     -0.086589
C       0.541665      1.262896     -0.296118
H      -1.963503      0.483816      1.177870
H      -2.432434     -0.503672     -0.231546
H      -2.126389      1.248854     -0.411363
H      -0.290941     -1.983113      0.367649
H       2.346146     -1.469204      0.512702
H       2.694444      1.093959     -0.177837
H      -0.166672      0.533693     -1.234872
