8
Extracted from Q-Chem output
O      -0.517570     -1.134244      0.169218
C      -1.321516      0.003972      0.269120
C      -0.876553      1.233030      0.117697
O      -0.535979      2.331503     -0.006721
C       0.736046     -0.930428     -0.102825
C       1.891001     -0.752452     -0.353444
H      -2.357461     -0.191000      0.484595
H       2.920275     -0.606785     -0.575143
