15
Extracted from Q-Chem output
C       2.311423      0.622707      0.038130
N       1.045530      0.253089      0.040042
C       0.668706     -1.176392      0.215295
C      -0.826237     -1.171045      0.144268
C      -1.221707      0.106644     -0.029742
N      -2.508517      0.611561     -0.086529
C      -0.076015      0.974990     -0.093336
H       1.151156     -1.750506     -0.577736
H       2.553154      1.665323     -0.088128
H       3.068290     -0.131124      0.172895
H       1.068842     -1.510807      1.174576
H      -1.437502     -2.054310      0.231414
H      -3.220310     -0.071675     -0.281753
H      -2.614823      1.442155     -0.643899
H      -0.043693      2.046938     -0.199116
