12
Extracted from Q-Chem output
C       1.556413     -0.441120     -0.009426
C       0.162292     -0.711168      0.386201
C      -1.115834      1.077860      0.431992
O      -1.767108      0.210871     -0.454000
C      -0.861977     -0.799443     -0.639242
O      -0.964851     -1.651627     -1.472439
H       2.232163     -0.312026      0.834302
H       1.824674     -1.392495     -0.492662
H       1.713940      0.338052     -0.762888
H      -0.430588      0.400119      1.120051
H      -0.521498      1.840545     -0.069192
H      -1.815429      1.500808      1.151956
