16
Extracted from Q-Chem output
C       1.685941      1.186626      0.935765
C       0.592648      0.303508      0.395816
C       0.853997     -0.840769     -0.170570
C       1.116979     -1.982103     -0.737602
C      -1.884152     -0.116957      0.083089
C      -0.817683      0.832622      0.530684
N      -2.748797      0.222363     -0.772146
H       1.674015      2.156983      0.432262
H       2.667066      0.736094      0.796349
H       1.535930      1.371450      2.002999
H       1.160638     -2.900431     -0.162325
H       1.299311     -2.049457     -1.804526
H      -1.864384     -1.108883      0.550344
H      -0.922354      1.764004     -0.031758
H      -0.991695      1.076567      1.586794
H      -3.402421     -0.537796     -0.948251
