16
Extracted from Q-Chem output
C       1.887117      1.077836      1.538198
C       1.135821      0.117950      0.716413
C       0.995136     -0.940757      0.081963
C      -0.001353     -1.554929     -0.732214
C      -1.259671     -0.551991     -0.286515
C      -0.655044      0.754490      0.040941
N      -2.118147     -0.073282     -1.233999
H       1.987010      2.032695      1.019071
H       2.884831      0.697162      1.755437
H       1.374061      1.263406      2.483194
H      -0.266045     -2.580470     -0.484153
H       0.185341     -1.454835     -1.801528
H      -1.689285     -1.042110      0.596208
H      -0.264102      1.307743     -0.804259
H      -1.134872      1.364099      0.803254
H      -3.079623     -0.340744     -1.025503
