12
Extracted from Q-Chem output
C      -2.466408      0.806035      0.035176
C      -1.160225      0.195425     -0.173771
C      -0.085496     -0.299602     -0.360991
C       1.216251     -0.900267     -0.571341
C       2.258818      0.295036     -1.268988
C       2.738941      0.094211     -0.132921
H      -2.360065      1.795419      0.482615
H      -2.995268      0.916167     -0.912478
H      -3.079779      0.195988      0.699885
H       1.229918     -1.604845     -1.397706
H       1.494586     -1.487600      0.314202
H       3.199221      0.009763      0.830185
