11
Extracted from Q-Chem output
O      -0.629256      1.356771     -0.914588
C      -0.853571      0.290125     -0.065366
C      -0.349634     -1.023398     -0.521804
C       0.320993     -0.348227      0.657323
C       1.622527      0.234840      0.494726
N       2.654974      0.724796      0.383281
H      -0.392182      2.133062     -0.401328
H      -1.785041      0.318462      0.493416
H      -0.927705     -1.913545     -0.317356
H       0.200468     -1.020109     -1.452711
H       0.138427     -0.752776      1.644408
