11
Extracted from Q-Chem output
O      -0.633576      1.400169     -0.902681
C      -0.804912      0.327100     -0.054189
C      -0.348114     -1.006120     -0.523115
C       0.374120     -0.351317      0.622743
C       2.007433     -0.140086      0.395421
N       1.666994      0.985576      0.533462
H       0.000320      2.006224     -0.505456
H      -1.697589      0.373840      0.564528
H      -0.919409     -1.896272     -0.291497
H       0.169084     -1.009646     -1.472550
H       0.230718     -0.707847      1.630161
