17
Extracted from Q-Chem output
O       2.528202     -0.313353      1.917009
C       2.582869     -0.446845      0.725955
C       1.435892     -0.191143     -0.212167
C       0.154912      0.243530      0.482513
C      -1.013703      0.436892     -0.437820
C      -1.911309     -0.573102     -1.065011
C      -2.444300      0.554513     -0.271324
H       3.522381     -0.782553      0.240010
H       1.779273      0.558684     -0.937451
H       1.278062     -1.104852     -0.797182
H       0.328452      1.142453      1.077622
H      -0.159397     -0.524256      1.193180
H      -0.402985      1.173035     -1.465404
H      -2.062790     -0.601694     -2.145331
H      -1.736410     -1.565228     -0.641770
H      -1.080791      1.556777     -1.016673
H      -2.826135      0.494166      0.738027
