15
Extracted from Q-Chem output
C      -1.416610      0.022364      0.548498
C      -1.055028     -0.299909     -0.905160
N       0.406329     -0.277220     -0.863956
C       0.735183     -0.927074      0.312478
C       1.795616     -0.213573      0.910541
N       1.918017      0.962321      0.360323
C       0.835698      1.057171     -0.512606
H      -1.730860     -0.834736      1.137634
H      -0.073920      1.275188      0.245824
H      -2.084698      0.860935      0.736442
H      -1.417529      0.422860     -1.638325
H      -1.400615     -1.289513     -1.212912
H       0.416543     -1.940565      0.505174
H       2.417776     -0.539979      1.733198
H       0.905239      1.778898     -1.320719
