14
Extracted from Q-Chem output
C      -2.370920     -0.176742      0.134318
O      -1.351539     -0.994741     -0.376883
C      -0.398701     -0.307356     -1.153745
C       0.520507      0.575902     -0.345852
C       1.791896      0.335329     -0.216124
C       3.061544      0.080183     -0.105664
H      -2.875655      0.379838     -0.667004
H      -3.095129     -0.829488      0.619845
H      -1.998206      0.539165      0.876898
H       0.187705     -1.071048     -1.663793
H      -0.910835      0.298546     -1.915932
H       3.776695      0.478220     -0.815942
H       3.436161     -0.537412      0.702151
H       0.103152      1.453976      0.138182
