14
Extracted from Q-Chem output
C      -2.301344      0.245555     -0.146459
O      -1.801117     -1.068638     -0.132536
C      -0.698207     -1.254313     -0.983955
C       0.498786     -0.503501     -0.581849
C       1.474872      0.110834     -0.254355
C       2.665119      0.852753      0.143129
H      -2.602696      0.544988     -1.159271
H      -3.175412      0.262007      0.502577
H      -1.561197      0.962926      0.225284
H      -0.479999     -2.323300     -0.969310
H      -0.961290     -0.982075     -2.016315
H       3.153957      0.378702      0.995343
H       3.380778      0.898605     -0.679098
H       2.407751      1.875459      0.422868
