14
Extracted from Q-Chem output
C      -2.507134      0.037026      0.110514
O      -1.813838     -1.088185     -0.363501
C      -0.563696     -0.768471     -0.924674
C       0.419424     -0.195861      0.002330
C       1.582478      0.328511     -0.130614
C       2.938316      0.550168      0.026010
H      -2.723056      0.744789     -0.702738
H      -3.447651     -0.316748      0.530122
H      -1.936725      0.559206      0.887265
H      -0.172082     -1.708219     -1.325906
H      -0.705201     -0.081409     -1.777041
H       3.353894      1.529648     -0.169600
H       3.626658     -0.259308      0.247794
H       1.877047      0.821212     -1.145820
