16
Extracted from Q-Chem output
C      -2.220237      1.241159      0.086103
C      -1.541085     -0.121305      0.219832
C      -0.056109     -0.003447      0.372756
C       0.844210     -0.466867     -0.483802
C       2.323052     -0.322326     -0.306902
O       2.981103     -1.577313     -0.245691
H      -1.860375      1.767555     -0.799903
H      -2.013002      1.871753      0.953810
H      -3.303144      1.134159      0.002198
H      -1.769661     -0.740896     -0.651150
H      -1.951355     -0.640698      1.092304
H       2.561339     -2.095342      0.444202
H       0.293667      0.533060      1.255189
H       0.520894     -1.009269     -1.370307
H       2.763515      0.191373     -1.164455
H       2.535263      0.280839      0.585349
