14
Extracted from Q-Chem output
C       2.105992     -1.045671     -0.409215
C      -2.890766     -0.193265      0.403091
C      -1.797380      0.543295      0.310270
O      -0.574013     -0.006293      0.106187
C       0.500225      0.831834      0.022722
C       1.724476      0.385712     -0.208319
H       2.584816     -1.186434     -1.381332
H       1.236529     -1.699101     -0.358282
H      -3.844357      0.287233      0.563674
H      -2.854214     -1.271322      0.319601
H      -1.810412      1.627515      0.390160
H       0.278078      1.885556      0.162094
H       2.504399      1.136771     -0.253556
H       2.821982     -1.367291      0.351127
