12
Extracted from Q-Chem output
C       1.967398     -0.457726     -0.618531
C       0.937592     -0.023745      0.067126
C       0.261697      0.169956      1.340972
C      -0.401867      0.589023      0.016553
C      -1.526324     -0.156759     -0.487356
C      -2.462150     -0.776486     -0.905824
H       2.826707     -0.894531     -0.123663
H       0.585641      0.968425      1.998036
H      -0.153350     -0.698304      1.838726
H       1.984110     -0.395936     -1.700092
H      -0.442964      1.657120     -0.170677
H      -3.293206     -1.326154     -1.279113
