15
Extracted from Q-Chem output
N       2.045023      0.253508     -0.442807
C       0.881346     -0.528805     -0.112462
C      -0.068925     -0.190858      1.050406
N       0.170122     -0.073326      2.278767
C      -0.328377     -0.459231     -1.042865
C      -1.010396      0.855329     -0.925757
C      -1.257484     -0.178927      0.144810
H       2.752151      0.148227      0.272394
H       1.819488      1.238198     -0.496077
H       1.187231     -1.570901      0.017355
H      -0.511562     -1.125351     -1.873797
H      -0.460307      1.759027     -0.687641
H      -1.840348      1.014048     -1.602648
H      -2.245142     -0.566550      0.352659
H      -0.685962      0.080762      2.809543
