15
Extracted from Q-Chem output
N       2.044842      0.215066     -0.466662
C       0.935892     -0.537292      0.041358
C       0.233205     -0.051230      1.306331
N       0.172234      0.438883      2.408803
C      -0.336424     -0.573046     -0.776900
C      -1.123162      0.695898     -0.855799
C      -1.396012     -0.269672      0.255865
H       2.844812      0.186043      0.148703
H       1.796996      1.180363     -0.634009
H       1.265177     -1.560812      0.246315
H      -0.457897     -1.323377     -1.545800
H      -0.656883      1.649859     -0.625328
H      -1.835628      0.752863     -1.670344
H      -2.323343     -0.827680      0.320190
H      -0.938388      0.277136      1.720103
