13
Extracted from Q-Chem output
N       2.640452     -0.934324      1.198776
C       1.789731     -0.224036      0.902961
C       0.674417      0.634768      0.515804
C       0.530926      1.092578     -0.926274
C      -0.957297      0.829621     -0.843872
C      -0.874462     -1.350132      0.435505
N      -0.615509     -0.102159      0.289346
H       0.516124      1.399912      1.283198
H      -1.464611      0.330122     -1.671960
H       1.027637      0.394506     -1.597329
H      -1.576461      1.642992     -0.454861
H      -0.227966     -1.960786      1.052899
H      -1.701267     -1.780662     -0.112835
