11
Extracted from Q-Chem output
O       1.564798      0.580477      1.497704
C       0.759049      0.218892      0.688204
C       0.877326     -0.905350     -0.326797
C      -0.409390     -0.952480     -1.113116
N      -1.143370      0.008781     -0.605998
C      -0.621307      0.829721      0.484302
H       1.731792     -0.747467     -0.990334
H       1.063498     -1.862716      0.167489
H      -0.543541      1.884074      0.210649
H      -2.068202      0.186403     -0.966397
H      -1.221563      0.748312      1.392827
