8
Extracted from Q-Chem output
C      -1.512009      0.114691     -0.255649
C      -0.069766      0.004844     -0.137029
C       1.122301     -0.086097     -0.037794
C       2.491565     -0.189037      0.077025
N       3.634914     -0.274439      0.173229
H      -1.865959      1.019337      0.239933
H      -1.996622     -0.746797      0.205101
H      -1.804423      0.157498     -1.305504
