12
Extracted from Q-Chem output
N      -2.039449     -0.484490     -0.161411
C      -0.786551     -0.056703     -0.042773
C       0.438409     -0.764946     -0.183221
C       1.453238      0.299133      0.037381
O       2.587750     -0.264646      0.338328
C       0.817898      1.477211      0.187999
O      -0.604574      1.218315      0.134595
H      -2.802662      0.167320     -0.126932
H      -2.230202     -1.466893     -0.209804
H       0.528944     -1.399813     -1.060639
H       1.505755     -1.173325      0.531089
H       1.067746      2.456110      0.549664
