12
Extracted from Q-Chem output
N       1.547504      0.375690      0.937106
C       1.889250      0.018672     -0.130277
C       1.826968     -0.497235     -1.376829
N      -0.360342     -0.408294     -0.059769
C      -1.797153     -0.472121      0.187583
C      -1.202794      0.729687     -0.407075
H       1.737937      0.162091     -2.229143
H       2.083613     -1.534408     -1.540730
H      -2.079634     -0.470986      1.235517
H      -2.348096     -1.174463     -0.430309
H      -1.330307      0.919987     -1.467735
H      -1.062627      1.616943      0.201232
