18
Extracted from Q-Chem output
C      -1.411282     -1.043342      0.556718
C      -0.153542     -0.311861      0.224197
C      -1.083626      1.439796     -0.577385
C       0.913770      0.095062      1.105715
C       1.985943     -0.084866      0.051367
C       0.861194     -0.662586     -0.852550
H      -2.086086     -1.119157     -0.295124
H      -1.123336     -2.049406      0.876216
H      -1.934349     -0.567634      1.385785
H      -1.530925      1.010801     -1.472000
H      -0.400306      2.247283     -0.861593
H      -1.853441      1.806816      0.103266
H       0.016988      0.958622      0.412137
H       0.911483      0.283144      2.168812
H       2.780512     -0.798792      0.278620
H       2.451784      0.827389     -0.338588
H       0.925323     -1.748844     -0.938137
H       0.714690     -0.230105     -1.841334
