12
Extracted from Q-Chem output
C      -1.009058      0.638335     -0.714960
O      -1.116864     -2.133036     -0.293768
C      -0.174571     -1.489598      0.108532
N      -0.013519     -0.152529     -0.030540
C       1.151029      0.526490      0.477539
H      -1.401243      1.416973     -0.054902
H      -0.580058      1.115789     -1.600558
H      -1.820530     -0.018444     -1.019048
H       0.671177     -1.955613      0.646132
H       1.809978     -0.189867      0.967951
H       1.707137      1.010832     -0.330747
H       0.871357      1.291781      1.207627
