14
smiles: [C:1]([H:7])([H:8])([H:9])[H:12].[C:2]1([C:5](=[O:6])[H:14])=[C:4]([H:13])[C:3]1([H:10])[H:11]
C        1.87980300       0.30602200       1.25201900
C       -1.07145300       0.04088700      -0.64060700
C       -0.87657000      -1.42072200      -0.92250000
C       -1.88754100      -0.75393900      -0.03585300
C       -0.62565600       1.41366000      -0.89193500
O       -1.13670600       2.37522000      -0.38226600
H        2.02295900      -0.09586500       0.25008700
H        1.75454200       1.38631000       1.19520400
H        2.74908000       0.07274300       1.86500100
H       -1.20053600      -1.83452000      -1.87557700
H       -0.04134900      -1.95015400      -0.46788000
H        0.99152200      -0.13916400       1.69759900
H       -2.71818000      -0.89799100       0.63222000
H        0.22437700       1.51732200      -1.59079100
