12
Extracted from Q-Chem output
N       1.608495      0.034385     -0.147229
C       0.499593      0.682647      0.141925
O       0.571359      2.000859      0.083442
C      -0.701418      0.006828      0.471830
C      -1.334422     -0.778654     -0.721675
N      -0.550757     -1.437272      0.350914
H       2.358819      0.481124     -0.643015
H       1.512198     -0.974628     -0.100765
H      -1.366673      0.485457      1.184749
H      -0.647353     -0.692269     -1.581666
H      -0.307736      2.370802      0.219975
H      -1.194956     -1.860194      1.008966
