15
Extracted from Q-Chem output
C       1.601454      0.678961      0.563923
C       0.518206     -0.917101     -0.914818
C      -0.620733     -0.055616     -0.789189
C      -1.724049     -0.501708      0.144726
O      -0.055263      1.266255     -0.117293
H       1.658247      1.687238      0.969697
H       2.416985      0.436249     -0.097607
H       1.417152     -0.066460      1.320788
H       1.046364     -0.937192     -1.862897
H       0.496996     -1.866230     -0.388587
H      -1.024359      0.348540     -1.722945
H      -2.262201     -1.339621     -0.300517
H      -1.302161     -0.839125      1.093691
H      -2.434195      0.299164      0.350065
H       0.219581      1.844152     -0.840835
