19
smiles: [C:1]([C:2]([O:3][H:11])=[C:7]([H:18])[H:19])([H:8])([H:9])[H:10].[C:4](=[C:5]([C:6]([H:15])([H:16])[H:17])[H:14])([H:12])[H:13]
C        1.00651900      -1.14837700      -0.98960800
C        0.84898800      -1.67690200       0.40082600
O        0.54101200      -0.74401900       1.34886800
C        0.22319100       2.40797500       0.13704100
C       -0.97651300       1.97542900       0.49267200
C       -1.99080800       1.39482300      -0.44040200
C        0.98681900      -2.94841500       0.75175800
H        0.08156000      -0.67195400      -1.32809900
H        1.25177200      -1.94725400      -1.68602100
H        1.80456400      -0.40111800      -1.03026300
H        0.46740400       0.12036800       0.94174400
H        0.91643300       2.81780700       0.86151600
H        0.55739200       2.36707500      -0.89489100
H       -1.26635200       2.03742800       1.53926800
H       -2.91801100       1.97322100      -0.41960800
H       -1.62146500       1.37550200      -1.46672800
H       -2.24807400       0.37281200      -0.14978800
H        1.23138300      -3.69494300       0.01103400
H        0.85612300      -3.25685400       1.78007000
