19
Extracted from Q-Chem output
C       1.910103     -0.773259     -0.646856
C       0.769163     -0.725273      0.331105
O       1.114196     -0.438128      1.635103
C       0.054052      1.503724     -0.370137
C      -1.121365      1.275843      0.331955
C      -1.979577      0.170492     -0.036340
C      -0.387530     -1.439523      0.168729
H       2.512807      0.136399     -0.623281
H       1.539734     -0.904672     -1.663039
H       2.563185     -1.618803     -0.407429
H       1.770444      0.260954      1.631427
H       0.726872      2.292394     -0.052956
H       0.109467      1.227016     -1.416442
H      -1.174251      1.583700      1.371804
H      -2.221821      1.604573     -0.155203
H      -2.087813     -0.069549     -1.085563
H      -2.780457     -0.129463      0.627040
H      -0.540781     -1.982954     -0.753991
H      -0.896235     -1.810202      1.048157
