10
Extracted from Q-Chem output
C       0.897346      0.897036     -0.007803
C       1.639154     -0.071914     -0.222647
N       0.581438     -1.974303     -0.095823
N      -0.486812     -1.990593      0.210689
C      -1.634521     -0.136941      0.228006
C      -0.939100      0.852011     -0.043820
H       1.034938      1.942360      0.199656
H       2.542889     -0.616955     -0.363049
H      -2.510710     -0.715817      0.403395
H      -1.125964      1.876080     -0.310281
