13
Extracted from Q-Chem output
C      -2.244684      0.144813     -0.410198
C      -0.908589      0.258943      0.242883
C      -0.247722      0.009287      1.364295
C       0.716476     -0.086604      0.271668
C       2.060695      0.329929     -0.127640
N       1.594367     -1.080727     -0.174514
H      -2.481997      1.006742     -1.034550
H      -2.978233      0.069234      0.393254
H      -2.308562     -0.758788     -1.019093
H      -0.080149      0.374561     -0.729807
H       2.720972      0.637196      0.676475
H       2.270770      0.759553     -1.099586
H       1.916612     -1.664328      0.589628
