17
Extracted from Q-Chem output
C       2.529333      0.751732      0.547775
O       1.278538      0.727075     -0.094380
C       0.612584     -0.488089      0.072213
C      -0.218874     -0.679512      1.326912
C      -0.849777     -0.471670     -0.007937
C      -1.684397      0.574657     -0.469557
O      -2.748034     -0.522682     -1.412575
H       3.198652     -0.022140      0.150897
H       2.424773      0.599898      1.628856
H       2.972897      1.729975      0.364816
H       1.170653     -1.341284     -0.315077
H      -0.261371     -1.658177      1.792631
H      -0.195431      0.152984      2.024152
H      -1.904992     -1.112685     -0.895029
H      -2.451302      0.993402      0.172849
H      -1.336724      1.245142     -1.251421
H      -2.571880     -0.446102     -2.359570
