15
Extracted from Q-Chem output
C       1.686113     -0.877187     -0.522457
O       1.252574      0.081996      0.399074
C      -0.520420      0.836129      0.329169
C      -1.062747      0.420531     -0.995167
C      -0.873287      0.186423      1.534266
H       1.869480     -0.413814     -1.498478
H       0.955363     -1.688441     -0.659676
H       2.625306     -1.325407     -0.184323
H      -0.136335      1.848583      0.379877
H      -1.299006     -0.643633     -1.015503
H      -0.385174      0.658354     -1.814652
H      -1.994024      0.971011     -1.159053
H      -1.592699     -0.623996      1.474515
H      -0.888913      0.769632      2.446954
H       0.414448     -0.241354      1.292258
