14
Extracted from Q-Chem output
O       1.017624     -0.233829      1.986294
C      -1.037747      0.029302     -0.317110
C      -0.349566      1.350695     -0.056814
O       1.018403      0.990971      0.057436
C       1.055726     -0.298529      0.593942
N      -0.123810     -1.020290      0.141733
C      -0.372514     -0.860493     -1.287526
H       0.472968     -0.966928      2.284894
H      -2.086550     -0.083118     -0.074731
H      -0.441122      2.070515     -0.870467
H      -0.718722      1.800281      0.870454
H       1.979051     -0.768590      0.243283
H       0.423125     -0.437323     -1.891494
H      -0.923474     -1.675703     -1.738089
