14
Extracted from Q-Chem output
O       0.230151     -0.730668      1.561366
C      -1.063632      0.185734     -0.225043
C      -0.277405      1.440583     -0.106224
O       0.902691      1.191149      0.672127
C       1.164542     -0.188253      0.589709
N       0.997549     -0.728068     -0.683455
C      -0.405511     -0.843309     -0.991321
H       0.311701     -1.688869      1.519582
H      -1.973732      0.038135      0.346112
H       0.036505      1.731801     -1.119665
H      -0.829222      2.246951      0.372932
H       2.185538     -0.343541      0.947372
H      -0.495598     -0.582777     -2.060012
H      -0.870190     -1.831906     -0.881673
