12
Extracted from Q-Chem output
C      -0.954331      0.481432      0.628585
C      -0.552845     -0.761932     -0.199459
O      -0.659243     -0.175291     -1.505708
C       0.125549      1.175542     -0.186476
C       1.345876      0.420975      0.141344
C       0.930492     -0.851563      0.144452
H      -1.968820      0.808270      0.410322
H      -0.747207      0.429651      1.694724
H      -1.130627     -1.688097     -0.131087
H      -0.305957      1.071042     -1.333951
H       2.351766      0.812666      0.160977
H       1.525017     -1.755312      0.185194
