13
Extracted from Q-Chem output
O       0.759413     -0.447968     -1.392130
C       1.889899     -0.477485     -0.655019
N       2.052016     -0.516810      0.590634
C      -0.851044      0.764848     -0.021672
C      -1.391250      0.827221      1.183884
C      -0.491867     -0.513506     -0.717319
H       2.747869     -0.469485     -1.324175
H       1.182019     -0.491045      1.114091
H      -0.672105      1.671899     -0.592324
H      -1.573193     -0.066347      1.773158
H      -1.678599      1.772082      1.627281
H      -1.211644     -0.718962     -1.511250
H      -0.507740     -1.360801     -0.023367
