12
Extracted from Q-Chem output
N       1.882992     -0.185892     -0.006206
C       0.598247     -0.140381     -0.426586
N      -0.055935     -1.388063     -0.741464
C      -1.015212     -1.153716      0.079488
C      -0.868723      0.207735      0.623573
C      -0.780829      1.268667     -0.396126
N       0.176861      0.998363     -1.207683
H       2.305418      0.693167      0.239529
H       2.139964     -0.977260      0.559072
H      -1.791385     -1.881919      0.308675
H      -1.175871      0.436882      1.639190
H      -1.403353      2.157119     -0.485644
