14
Extracted from Q-Chem output
C      -0.508143      1.386028      0.107800
N      -0.487623      0.043184     -0.440492
C      -1.040236     -0.933775      0.478572
C       0.809660     -0.334481     -0.941888
C       1.864178     -0.420572      0.099403
N       2.646154     -0.475693      0.937301
H      -1.534799      1.653355      0.360154
H      -0.148019      2.096696     -0.638140
H       0.108276      1.489735      1.014533
H      -0.473839     -1.006832      1.420186
H      -1.054365     -1.917897      0.006972
H      -2.068123     -0.659630      0.718434
H       1.139512      0.388190     -1.690928
H       0.747367     -1.308307     -1.431907
