14
Extracted from Q-Chem output
C      -0.797567      1.480936     -0.167171
N      -0.004894      0.353940      0.304370
C      -0.665558     -0.623410      0.950030
C       0.980231     -0.057824     -0.554556
C       1.946286     -0.989337     -0.070746
N       2.705246     -1.764586      0.314026
H      -1.382369      1.179407     -1.042625
H      -0.138913      2.304511     -0.434478
H      -1.469100      1.805869      0.623737
H      -0.074704     -1.416561      1.389107
H      -0.776065     -1.447177     -0.461629
H      -1.576259     -0.344389      1.464130
H       1.353960      0.685995     -1.246116
H      -0.124391     -1.243442     -1.064697
