16
Extracted from Q-Chem output
N       2.531005      1.061854      0.538502
C       1.468599      0.885248     -0.009378
C       0.951024     -1.020339     -0.217116
C      -0.458581     -1.125522      0.342057
C      -1.371972     -0.059839     -0.252631
C      -0.829067      1.333523     -0.024210
O       0.471993      1.496406     -0.627947
H       2.008411     -0.224011      0.322021
H       0.998157     -1.126413     -1.300727
H       1.607692     -1.786013      0.224133
H      -0.432047     -1.018008      1.431703
H      -0.875677     -2.117452      0.142242
H      -1.488908     -0.224828     -1.327916
H      -2.369185     -0.116738      0.191399
H      -0.741671      1.560485      1.043155
H      -1.447850      2.095127     -0.494766
