15
smiles: [C:1](/[N:2]=[C:3](/[C:4]([O:5][H:15])([H:13])[H:14])[H:12])([H:8])([H:9])[H:10].[C:6]=[N:7][H:11]
C       -1.88078000       0.89639900       0.32394700
N       -0.65071100       0.19627500       0.03409400
C        0.39974000       0.87373900      -0.11089100
C        1.72213200       0.22781300      -0.40543600
O        2.70779000       0.62144300       0.53094300
C       -0.71805100      -3.75534700      -0.04631700
N       -0.72720900      -2.59289200      -0.04791300
H       -2.60561200       0.68469700      -0.46444900
H       -2.29946000       0.50782300       1.25429800
H       -1.75585600       1.98378700       0.41237300
H       -0.73516600      -1.59673000      -0.04931600
H        0.41408800       1.96924000      -0.00505700
H        2.08623400       0.56323900      -1.37967800
H        1.58942900      -0.85774800      -0.44116800
H        2.46592500       0.26572800       1.38838600
