15
Extracted from Q-Chem output
C      -1.947948      0.713650      0.562649
N      -0.605577      0.166421      0.603678
C       0.313947      0.436677     -0.240869
C       1.670181     -0.198316     -0.228681
O       2.584068      0.802521      0.177053
C      -0.521552     -1.771360     -1.440108
N      -0.515438     -2.446828     -0.488970
H      -2.577747     -0.001001      0.028269
H      -2.317746      0.853731      1.576273
H      -1.939411      1.665395      0.036274
H      -0.520015     -0.750426      1.043137
H       0.166033      1.290319     -0.895909
H       1.916034     -0.502106     -1.243703
H       1.680527     -1.092336      0.397056
H       2.614644      0.833659      1.134946
