14
Extracted from Q-Chem output
C       1.248014      0.433449     -0.931594
C       0.698784      0.255646      0.448673
C      -0.708737      0.656459      0.796162
O      -1.593210      0.459827     -0.332561
C      -2.426642     -0.518271     -0.407600
C       0.990898     -0.945811     -0.395030
H       0.573475      0.795768     -1.695939
H       2.272183      0.766315     -1.032226
H       1.384648      0.443251      1.267572
H      -0.765440      1.719404      1.035816
H      -1.098417      0.068189      1.632815
H       0.157091     -1.490572     -0.821059
H      -2.344622     -1.094069      0.556851
H       1.835872     -1.563549     -0.122602
