14
Extracted from Q-Chem output
C       1.189348      0.407067     -0.838308
C       0.616116      0.318711      0.539834
C      -0.772709      0.869905      0.796412
O      -1.562565      0.426144     -0.299554
C      -1.480268     -0.901725     -0.506683
C       0.611703     -0.880612     -0.339251
H       0.611963      0.941329     -1.584833
H       2.262980      0.478933     -0.951785
H       1.294564      0.317096      1.384358
H      -0.820092      1.959262      0.819809
H      -1.164853      0.464510      1.737630
H      -0.374161     -1.181398     -1.092502
H      -1.476815     -1.458287      0.446746
H       1.197551     -1.764993     -0.129362
