18
smiles: [C:1]([C:2](=[C:3]([H:12])[H:13])[H:10])([H:7])([H:8])[H:9].[C:4](=[O:5])([H:14])[H:15].[C:6]([H:11])([H:16])([H:17])[H:18]
C       -1.66772900      -0.32591200       0.78446400
C       -1.33518300       0.37723600      -0.49283000
C       -1.49843100       1.67214400      -0.71465200
C        1.40544800       1.48690100       0.81293000
O        1.42892600       0.74331700       1.74916600
C        1.63617700      -2.01042700      -0.64741200
H       -2.06620900       0.36629000       1.52749400
H       -0.78196200      -0.80854000       1.20548300
H       -2.40789000      -1.11213300       0.61466600
H       -0.92890000      -0.24231400      -1.28920000
H        0.71986400      -2.59881800      -0.64667900
H       -1.23606300       2.12125500      -1.66479900
H       -1.89937700       2.33227100       0.04789400
H        1.71801400       1.16505200      -0.19914100
H        1.06957000       2.53755000       0.90762900
H        1.68276400      -1.41132900       0.26065300
H        1.64519100      -1.35497700      -1.51694800
H        2.49637800      -2.67700900      -0.68708400
