15
Extracted from Q-Chem output
C       1.597773     -0.412549     -0.494147
C       0.582658      0.316572      0.351332
C      -0.397223      1.308825     -0.306744
N      -1.450889      0.791952      0.584440
C      -0.690150     -0.417559      0.850987
C      -1.362175     -2.423420     -0.655150
N      -1.054013     -1.529758      0.024838
H       1.129898     -0.900636     -1.350255
H       2.344345      0.289286     -0.870919
H       2.120722     -1.176100      0.084862
H       1.057057      0.781186      1.216514
H      -0.556952      1.083082     -1.367116
H      -0.190809      2.373347     -0.189465
H      -2.375129      0.662339      0.198028
H      -0.712907     -0.766203      1.884265
