14
Extracted from Q-Chem output
C       1.257500      0.627982      0.170462
C       0.929229     -0.901278      0.267018
C      -0.205284     -0.639782     -0.744620
O      -1.699539     -0.509768     -0.424872
C      -1.254587      0.547710      0.548282
C      -0.147516      0.848215     -0.476782
H       1.459247      1.147344      1.108572
H       2.079549      0.826945     -0.517258
H       0.634047     -1.249340      1.254095
H       1.680069     -1.593719     -0.115913
H      -0.122013     -1.113419     -1.721650
H      -1.000727      0.039248      1.481407
H      -2.054717      1.267093      0.713237
H      -1.521558      0.409112     -1.163581
