13
Extracted from Q-Chem output
C      -2.141891      0.004881     -0.327615
C      -0.737369     -0.493223     -0.462074
O      -0.400339     -1.418244     -1.153445
C       0.338652      0.248770      0.353946
O       0.044620      1.175503      1.066401
C       1.759468     -0.227968      0.226210
O       2.623462      0.524770      1.017847
H      -2.451931     -0.038256      0.718150
H      -2.192134      1.055213     -0.620878
H      -2.802742     -0.596314     -0.946908
H       2.040609     -0.178346     -0.833434
H       2.088404      1.190967      1.467295
H       1.788900     -1.290444      0.498609
