13
Extracted from Q-Chem output
C      -2.010339      0.018223     -0.295679
C      -0.642208     -0.547394     -0.490751
O      -0.391361     -1.568562     -1.076116
C       0.490545      0.275400      0.136382
O       0.312299      1.379679      0.761082
C       1.700991     -0.412802      0.523431
O       2.409650      0.291708      1.324927
H      -2.212286      0.117763      0.772471
H      -2.041729      1.030980     -0.702002
H      -2.748764     -0.619762     -0.774820
H       1.301486      0.311033     -0.816040
H       1.749348      1.078775      1.472904
H       2.052476     -1.372069      0.165390
