13
Extracted from Q-Chem output
O       1.281286      0.389186     -0.524841
C       1.664624     -0.738043      0.066463
N       0.920495     -1.519823      0.718474
C      -0.045127      0.877025     -0.511009
C      -0.983647      0.811305      0.644189
C      -1.275782      0.045929     -0.628016
H       2.734711     -0.873390     -0.106700
H       1.460471     -2.303919      1.064755
H      -0.028371      1.801787     -1.070610
H      -0.702925      0.208308      1.493786
H      -1.547714      1.707266      0.868650
H      -2.045348      0.401120     -1.300919
H      -1.173365     -1.026120     -0.557466
