18
Extracted from Q-Chem output
C       2.847784      0.375475     -0.090957
N       1.463938      0.249567     -0.481896
C       0.593707      0.015651      0.428461
O       0.564835     -0.158017      1.677632
C      -0.840887     -0.118551      0.086408
C      -1.429258     -1.483050      0.042685
C      -1.738949      1.031790      0.369845
H       3.206966      1.387954     -0.293079
H       3.465581     -0.313309     -0.671614
H       2.988589      0.163069      0.974342
H       0.189397      0.231781     -1.575683
H      -0.620315      0.137094     -1.685613
H      -1.646704     -1.766735      1.076225
H      -0.733839     -2.208313     -0.374267
H      -2.368453     -1.488176     -0.510286
H      -2.688247      0.934747     -0.156585
H      -1.944314      1.012011      1.443809
H      -1.263533      1.980837      0.130489
