13
Extracted from Q-Chem output
C       0.958306     -1.031325      0.404708
C      -0.533067     -0.989767     -0.007374
O      -2.477152      1.150579     -0.692585
C      -1.301779      1.376567     -0.504696
N      -0.378806      0.437450     -0.248482
C       1.024386      0.493869      0.146168
H       1.137151     -1.321644      1.437323
H       1.591923     -1.625918     -0.249242
H      -0.797889     -1.557622     -0.900851
H      -1.252348     -1.217520      0.781607
H      -0.870972      2.395873     -0.533685
H       1.212522      1.106439      1.030960
H       1.699674      0.802361     -0.654696
