13
Extracted from Q-Chem output
C       0.637113     -0.773586      0.554921
C      -0.599917     -1.028550     -0.260778
O      -1.974365      0.461286      0.257457
C      -1.129053      1.309390     -0.085139
N      -0.051563      0.990445     -0.752941
C       1.169473      0.429444     -0.210809
H       0.347594     -0.488332      1.567937
H       1.282057     -1.656726      0.634762
H      -0.453071     -1.215668     -1.317189
H      -1.394141     -1.618364      0.176709
H      -1.371690      2.362385      0.117828
H       1.761942      1.134815      0.380179
H       1.787567      0.112805     -1.053782
