9
Extracted from Q-Chem output
C      -1.256997      0.379500     -0.254901
C      -0.207204     -0.149177     -0.938534
C       1.000421     -0.496213     -1.066018
C       1.532120     -0.443231      0.283640
O       0.987738      0.207164      1.204927
H      -1.417939      1.450758     -0.352836
H      -0.145919      0.389219      0.774606
H      -2.148270     -0.211534     -0.068677
H       2.434414     -0.994276      0.555459
