8
Extracted from Q-Chem output
C      -1.487282     -0.298618     -0.079676
N      -0.957655      0.792831     -0.205379
N      -0.070433      1.629772     -0.075017
N       1.231987      1.011348     -0.223425
C       1.092286     -0.162186      0.271397
N       0.485621     -1.164422      0.679783
H      -2.001597     -0.791641     -0.898505
H       1.862332     -0.997470      0.688047
