15
Extracted from Q-Chem output
C      -1.609289      0.218150      0.668236
C      -0.953242     -0.859046     -0.184446
N       0.637575      0.680888     -1.330679
C       0.497606     -0.544844     -0.562559
C       1.440740     -0.321778      0.578891
N       2.033721      0.806768      0.495778
C       1.496057      1.372042     -0.695404
H      -2.645927     -0.042048      0.886145
H      -1.092368      0.347012      1.621734
H      -1.606258      1.177576      0.149947
H      -1.511942     -0.992471     -1.112958
H      -0.970544     -1.820484      0.336645
H       0.879883     -1.370847     -1.177519
H       1.633562     -1.019763      1.387689
H       1.834273      2.349675     -1.017570
