16
Extracted from Q-Chem output
C      -0.442907      1.653775     -1.502606
C      -0.465882      0.779329     -0.276607
C      -1.000973     -0.620274     -0.348905
C       0.472728     -0.379662     -0.150808
C       1.099076     -0.713239      1.173159
O       1.426649     -2.084434      1.291168
H       0.322623      2.428359     -1.419305
H      -1.406061      2.146340     -1.653079
H      -0.226313      1.065338     -2.397065
H      -0.676294      1.305483      0.649609
H       0.648868     -2.593224      1.051775
H      -1.335646     -0.986072     -1.311670
H      -1.573584     -0.990389      0.494081
H       1.108402     -0.578401     -1.008018
H       2.038809     -0.171925      1.300880
H       0.425815     -0.401695      1.984921
