10
Extracted from Q-Chem output
N      -1.639807     -0.210458     -0.244625
C      -0.360111      0.233196      0.063615
N       0.497881     -0.816516      0.235297
C       1.838942     -0.739746     -0.046093
N       2.186120      0.382847      0.329511
N      -0.014623      1.462199      0.178392
H      -2.388054      0.367685      0.095012
H      -1.796999     -1.194356     -0.111937
H       2.429226     -1.590590     -0.381112
H      -0.752201      2.095251     -0.121069
