13
Extracted from Q-Chem output
C      -1.136651     -0.601077      0.062045
O      -0.112974     -1.293427     -0.587810
C       0.891722     -1.037130      0.368317
C       0.535422      1.154120      0.212547
N       0.190862      1.287668     -1.114168
C      -0.837671      0.855795      0.005056
H       0.010701     -0.620439      1.172134
H      -2.124538     -0.941973     -0.248275
H       1.058763     -1.947882      0.952508
H       1.851249     -0.747386     -0.066622
H       1.105155      1.892182      0.768768
H       0.270007      0.395210     -1.617433
H      -1.635039      1.553620      0.223301
