18
smiles: [C:1]([C@@:2]1([H:10])[C:3][C@:5]1([C:6]([H:16])([H:17])[H:18])[H:15])([H:7])([H:8])[H:9].[C:4]([H:11])([H:12])([H:13])[H:14]
C       -0.85968200      -1.69023700       0.44944900
C        0.39508200      -1.69297200      -0.39460200
C        0.55552600      -0.60374500      -1.39067600
C       -1.64768800       2.28161800      -0.50027100
C        1.54210200      -0.73697900      -0.28874300
C        1.65652900       0.42145500       0.67727900
H       -1.68073000      -2.16647100      -0.08855400
H       -1.17349000      -0.67665200       0.69969600
H       -0.69734900      -2.22875400       1.38524600
H        0.69848200      -2.67384100      -0.75189000
H       -1.21581500       1.50715100      -1.13217600
H       -0.88745400       3.02509400      -0.26573300
H       -2.01589700       1.83506600       0.42209600
H       -2.47325000       2.76023700      -1.02497400
H        2.49079200      -1.17902100      -0.58166300
H        0.69557000       0.91264100       0.83238900
H        2.35018000       1.16981200       0.29131000
H        2.01740000       0.07890900       1.64917000
