15
Extracted from Q-Chem output
C      -1.417762     -1.430718      0.366254
N      -0.323892     -0.504366      0.241166
C       1.015785     -0.780809      0.507858
C       1.808787      0.243606      0.205384
C       0.949518      1.352944     -0.335224
C      -0.451753      0.756401     -0.304717
N      -1.569767      1.227183     -0.683190
H      -2.342443     -0.858023      0.409766
H      -1.476190     -2.110632     -0.489308
H      -1.312233     -2.016152      1.280627
H       1.281645     -1.743766      0.920700
H       2.877819      0.282388      0.335798
H       1.211307      1.642096     -1.356283
H       0.984815      2.258384      0.276733
H      -1.459930      2.167188     -1.046026
