15
Extracted from Q-Chem output
C      -1.354532     -1.323969      0.394486
N      -0.164888     -0.539196      0.182414
C       1.117340     -0.952754      0.215797
C       1.948985      0.077840     -0.174500
C       1.139488      1.169222     -0.491934
C      -0.227530      0.800849     -0.241014
N      -1.502406      1.326980     -0.546073
H      -1.974789     -1.288834     -0.502873
H      -1.069712     -2.350518      0.618327
H      -1.941961     -0.914972      1.216965
H       1.369228     -1.941095      0.569194
H       3.026521      0.043860     -0.180848
H       1.447528      2.158880     -0.790997
H      -0.392856      1.489504      0.666841
H      -1.356502      2.238811     -0.971294
