14
Extracted from Q-Chem output
N      -2.593559     -0.266616     -0.023203
C      -1.195353     -0.055850     -0.006940
C      -0.123295     -0.921199     -0.032785
C       0.995543     -0.055437      0.004380
N       2.447840     -0.063886      0.011935
C       0.648949      1.265439      0.051064
N      -0.719635      1.235042      0.042510
H      -2.900964     -0.754566     -0.851421
H      -2.918620     -0.768756      0.789870
H      -0.182224     -1.998031     -0.071157
H       2.898898     -0.404570     -0.830352
H       2.889570     -0.464636      0.832436
H       2.175208      1.171337      0.056003
H      -1.340997      2.023554      0.065075
