15
smiles: [C:1](=[C:2]([O:3][H:11])[C:4]([C@@:5]1([H:14])[O+:6]=[C-:7]1)([H:12])[H:13])([H:8])[H:9].[H:10][H:15]
C        1.30608800       1.31740500      -0.00905800
C        0.39592400       0.53240900       0.55435200
O        0.67451800      -0.58778600       1.26801500
C       -1.08260400       0.75496400       0.47838700
C       -1.83406900      -0.33828400      -0.23509600
O       -1.27692600      -0.80697000      -1.49702400
C       -1.27117200      -1.68392500      -0.55614200
H        1.00368200       2.18311000      -0.57897400
H        2.36715300       1.11610300       0.08022900
H        2.32760100      -2.05990200      -1.14358900
H        1.61498300      -0.77819100       1.22612400
H       -1.48263700       0.80694500       1.49620800
H       -1.27857400       1.71647300       0.00053200
H       -2.91289900      -0.22928700      -0.27591700
H        1.61436000      -2.19084500      -0.97443100
