12
Extracted from Q-Chem output
O      -2.010815     -0.459140     -0.063678
C      -0.973254     -0.738303      0.619507
C      -0.195962      0.434789      0.901295
C       1.166568      0.772300      0.421647
C       0.154226      0.455351     -0.664310
C       0.501357     -0.731637     -1.402027
N       0.802399     -1.595814     -2.101931
H      -0.713771     -1.773386      0.839503
H      -0.821386      1.294530      1.118303
H       1.985901      0.071437      0.520675
H       1.426814      1.807653      0.603216
H      -1.350913      0.408043     -0.699413
