14
Extracted from Q-Chem output
C       1.250743     -1.113278      0.188878
C       0.741082      0.309350      0.196916
O       1.411894      1.009982     -0.837016
C      -0.752410      0.446058      0.025153
O      -1.072198      1.772244     -0.034390
C      -1.643065     -0.533277     -0.051279
H       0.830433     -1.685886      1.016075
H       2.335308     -1.101030      0.293810
H       1.003625     -1.604734     -0.753027
H       0.983267      0.771412      1.166370
H       1.007775      1.878443     -0.911128
H      -2.011388      1.873485     -0.204543
H      -2.702798     -0.330283     -0.157352
H      -1.335679     -1.566706     -0.012897
