11
Extracted from Q-Chem output
O      -2.647591      0.201039     -0.296549
C      -1.447312      0.041878     -0.362725
N      -0.456400      1.001633     -0.200712
C       0.792190      0.438639     -0.341624
O       1.857988      1.249003     -0.210964
C       0.644724     -0.870799     -0.595755
N      -0.742072     -1.105544     -0.610113
H      -0.650102      1.964971     -0.000168
H       2.662675      0.738005     -0.317295
H       1.372462     -1.641868     -0.771430
H      -1.196253     -1.986043     -0.755997
