16
Extracted from Q-Chem output
C      -0.991291      0.485045      1.056781
O      -1.398961     -0.441977      0.060972
C      -0.804466     -0.163792     -1.186265
C       0.642784     -0.691413     -1.238929
N       1.192993     -0.804410      0.109232
C       1.115755      0.258731      0.922650
O       1.325750      1.479986      0.455386
H       0.160792      1.367222      0.749972
H      -1.598134      1.408533      0.965893
H      -1.209636      0.048646      2.031606
H      -0.832218      0.913601     -1.388407
H      -1.406368     -0.660128     -1.949080
H       1.278032     -0.039803     -1.837328
H       0.674207     -1.689165     -1.674951
H       1.038007     -1.690854      0.560854
H       1.325744      0.028616      1.971134
