13
Extracted from Q-Chem output
O       0.799587      2.037107      0.713726
C       0.444485      0.936476      0.046735
C       1.515816     -0.069578     -0.317521
O       0.797208     -1.301362     -0.269435
C      -0.538633     -0.970330     -0.586258
C      -1.563673     -0.617863      0.460043
C      -0.763971      0.440326     -0.242163
H       2.312878     -0.077088      0.428609
H       1.959542      0.092227     -1.308272
H      -0.888428     -1.393170     -1.524519
H      -1.326311     -0.790947      1.503741
H      -2.607723     -0.764228      0.202972
H       0.002595      2.522861      0.949349
