13
Extracted from Q-Chem output
O       0.784312      2.132484      0.488578
C       0.575847      0.922223      0.192368
C       1.499809     -0.202354     -0.120775
O       0.670587     -1.137745     -0.783005
C      -0.675837     -0.684745     -0.768782
C      -1.339319     -0.634675      0.534889
C      -0.784692      0.673008     -0.061550
H       1.927912     -0.610165      0.803254
H       2.320691      0.098902     -0.776058
H      -1.193380     -0.915007     -1.690552
H      -0.841926     -1.093941      1.382277
H      -2.420690     -0.674955      0.567533
H      -0.429556      2.148683      0.267396
