13
Extracted from Q-Chem output
C      -1.191266     -0.618054      0.592819
C      -0.158852      0.028536     -0.290986
O      -0.639644      0.403521     -1.554312
C       1.242539     -0.468041     -0.301296
C       0.922413      0.878312      0.305878
H      -0.754946     -0.934527      1.541339
H      -1.616456     -1.493147      0.097951
H      -2.004091      0.079464      0.814222
H      -1.242853      1.141185     -1.438415
H       1.503712     -1.283298      0.361003
H       1.747442     -0.470186     -1.257627
H       0.965257      0.982993      1.382888
H       1.226745      1.753242     -0.253463
