13
Extracted from Q-Chem output
O       2.249346     -0.826862      0.481241
N       1.343988      0.207565      0.527359
C       0.400360      0.055847     -0.388089
C       0.159046     -0.977557     -1.246704
C      -1.417089      0.361438      0.946723
C      -0.690707      1.026412     -0.123266
H       2.907966     -0.572401      1.131053
H      -0.712977     -0.942570     -1.884325
H       0.863096     -1.787531     -1.375622
H      -2.297493      0.803056      1.405799
H      -1.077977     -0.596053      1.311096
H      -1.302750      1.235362     -1.013686
H      -0.275642      1.996066      0.196867
