15
Extracted from Q-Chem output
C       1.162939      1.250187     -0.413786
C       0.018783      0.482422      0.211093
O      -0.385747      1.035302      1.438184
C      -1.174852      0.159162     -0.726932
N      -0.715087     -1.236296     -0.722724
C       0.209789     -1.031955      0.276427
N       0.927236     -1.721459      1.049606
H       2.036146      1.207919      0.239182
H       0.877526      2.294392     -0.550876
H       1.438115      0.825306     -1.380915
H       0.137193      0.612567      2.126431
H      -1.165960      0.628636     -1.711713
H      -2.132971      0.318449     -0.230440
H       0.796246     -2.721910      0.926148
H      -1.267017     -2.062879     -0.881263
