11
Extracted from Q-Chem output
O      -1.242510      2.162192     -0.172652
C      -0.662033      1.086722     -0.149383
C      -1.014384     -0.240829     -0.503666
C       0.141644     -1.139341     -0.175089
C       1.159933     -0.300895      0.286551
N       0.683240      0.947547      0.319132
H      -1.962097     -0.573498     -0.889680
H      -0.676726     -1.092027      0.676552
H       0.282873     -2.141356     -0.549016
H       2.166152     -0.551620      0.580155
H       1.169301      1.744780      0.697672
