11
Extracted from Q-Chem output
N      -2.009461     -0.244994      0.568154
C      -1.017373     -0.204855     -0.333006
N      -0.567416     -0.772164     -1.354493
N       1.541561     -0.335368      0.928711
C       1.450156      0.314309     -0.152815
C       0.140501      0.486297     -0.828521
H      -1.840168      0.222365      1.440777
H      -2.534190     -1.102267      0.624589
H       2.506655     -0.393288      1.243993
H       2.312418      0.774726     -0.648938
H       0.038250      1.373334     -1.450344
