15
Extracted from Q-Chem output
O      -2.049029     -0.612453      1.306179
C      -1.180623      0.162129      0.542642
C      -0.645453     -0.386540     -0.640014
C       0.230180      0.321272     -1.602357
C       1.229311     -0.427221     -0.771678
C       1.716681      0.151648      0.360379
C       1.280226      0.674585      1.421543
H      -1.621325     -1.445960      1.511026
H      -0.014380      0.388971      1.312562
H      -1.515452      1.195627      0.529462
H      -0.924004     -1.404920     -0.884617
H       0.148488      0.021394     -2.642519
H       0.266515      1.400437     -1.486532
H       1.544100     -1.407082     -1.104435
H       1.547090      1.382858      2.185203
