12
Extracted from Q-Chem output
N       1.894189     -0.080266      0.368393
C       0.893382      0.769400     -0.097225
O       1.138322      1.644007     -0.910057
C      -0.428838      0.534320      0.465922
C      -1.514945      0.268626     -0.468115
N      -0.912672     -0.888467      0.252738
H       2.822083      0.242700      0.143411
H       1.788285     -0.401262      1.316841
H      -0.369403     -1.528410     -0.313910
H      -1.342123      0.219657     -1.542623
H      -2.544905      0.477897     -0.193680
H      -1.432790     -1.332891      0.994045
