12
Extracted from Q-Chem output
C      -1.911612      0.977403      0.659969
C       0.228981     -0.126861      0.376928
N      -0.839160      0.433625     -0.148269
N       1.105571     -0.569815     -0.563822
C       2.287883     -1.191035     -0.207051
O       3.085641     -1.595920     -1.007540
H      -2.040059      2.044798      0.469003
H      -1.646611      0.828456      1.703628
H      -2.853270      0.465220      0.451793
H      -0.966951      0.512729     -1.154506
H       0.964254     -0.482624     -1.569198
H       2.397454     -1.263534      0.884838
