12
Extracted from Q-Chem output
C      -1.474621      0.702502      0.824392
C       0.127412      0.779573     -0.004740
N      -0.771193      1.455331     -0.700161
N       0.677340     -0.341554     -0.592769
C       1.696370     -1.055479     -0.006224
O       2.197372     -2.030215     -0.499262
H      -2.431678      0.580046      0.311230
H      -1.484137      1.527695      1.520148
H      -1.227579     -0.245243      1.304080
H      -0.967984      1.041473     -1.635744
H       0.383210     -0.668441     -1.511707
H       1.995572     -0.628748      0.964062
