15
Extracted from Q-Chem output
O       2.586376     -0.727158      1.413789
C       1.476247     -0.325168      0.752354
C      -1.265279      1.810518     -0.904046
C      -1.098377      0.697489     -0.201881
O      -1.499932      0.646432      1.099884
C      -0.519269     -0.576753     -0.750035
C       0.687791     -1.084913     -0.000098
H       2.749055     -1.657654      1.236604
H       1.290162      0.732134      0.909167
H      -1.706230      2.689940     -0.454733
H      -0.973171      1.846931     -1.943213
H      -1.126896     -0.137864      1.511895
H      -1.301547     -1.343897     -0.718605
H      -0.280018     -0.428128     -1.805373
H       0.930906     -2.137566     -0.126107
