11
Extracted from Q-Chem output
C      -0.845888     -1.559001      0.358310
C       0.341439      0.972579      0.136570
C       0.452664      0.020347     -0.799249
O      -0.072468     -1.198285     -0.773444
C       0.973948      2.232612     -0.058129
N       1.479551      3.255358     -0.202455
H      -1.709944     -0.897276      0.462198
H      -1.182210     -2.577364      0.183731
H      -0.241269     -1.521653      1.268475
H      -0.213491      0.839669      1.054289
H       1.018473      0.187848     -1.708500
