13
Extracted from Q-Chem output
C      -1.740777      0.106732     -0.202888
N      -0.304835      0.174769     -0.067072
C       0.534886     -0.965936      0.221434
C       1.891661     -0.327459      0.244115
C       1.888450      1.017565      0.003274
C       0.476129      1.232767     -0.177021
H      -2.195938     -0.267753      0.715800
H      -2.018457     -0.554736     -1.025698
H      -2.127942      1.103611     -0.406781
H       0.244499     -1.414819      1.177173
H       2.764415     -0.943316      0.441263
H       0.419747     -1.725880     -0.558692
H      -0.012384      2.181361     -0.395080
