13
Extracted from Q-Chem output
C      -1.773706      0.140473     -0.082123
N      -0.332272      0.185174      0.053800
C       0.438009     -0.830473      0.489333
C       1.817088     -0.384106      0.284653
C       1.848340      0.917575     -0.305772
C       0.501264      1.193515     -0.404831
H      -2.210377     -0.429551      0.737014
H      -2.069918     -0.310976     -1.030846
H      -2.160850      1.157145     -0.040758
H       0.039192     -1.690833      1.007562
H       2.652241     -0.991252      0.615334
H       1.183068     -1.205125     -0.515897
H       0.012563      2.073476     -0.808719
