11
Extracted from Q-Chem output
C      -1.561367     -0.302239      0.440044
C      -0.271449     -0.132979      0.135520
C       0.830247     -0.982001      0.466441
O       1.926352     -0.487589     -0.002363
N       1.832357      0.652513     -0.665358
C       0.407830      0.979968     -0.633526
H      -2.312919      0.413898      0.135467
H      -1.894427     -1.164090      1.003714
H       0.031901      1.064920     -1.659240
H       0.903025     -1.911362      1.006359
H       0.272044      1.957675     -0.158152
