14
Extracted from Q-Chem output
C      -1.114335      1.282219     -0.231395
C      -1.745333     -1.174136     -0.852656
C      -0.422693     -1.153376     -0.559665
C       0.629419     -0.594440     -0.237273
C       2.025255     -0.304208      0.102682
O       2.148163      0.556133      1.212787
H      -0.825683      0.986287     -1.215357
H      -1.382794      2.326742     -0.079192
H      -1.207541      0.622840      0.603004
H      -2.467905     -1.494347     -0.112068
H      -2.079960     -1.148376     -1.882903
H       2.528229      0.111272     -0.779029
H       2.535268     -1.233657      0.368851
H       1.499391      1.257743      1.099488
