10
Extracted from Q-Chem output
O       1.515588      0.848014     -1.313630
C       0.836909     -0.448624      0.725047
C      -0.447529     -0.878552      0.925566
N      -1.298965     -0.288936     -0.011304
N      -0.773394      0.508115     -0.830398
C       0.595799      0.565845     -0.334086
H       2.303890      0.349409     -1.082951
H      -0.877781     -1.588442      1.617114
H      -2.304728     -0.421298     -0.060799
H       0.450740      1.427014      0.377422
