10
Extracted from Q-Chem output
O       1.427279     -0.036341     -0.631188
C       0.667124     -0.211461      0.899619
C      -0.520859     -0.982141      0.524917
N      -1.261974     -0.270322     -0.284787
N      -0.824318      0.941718     -0.620392
C       0.383013      0.981658      0.031409
H       2.298139      0.156289     -0.270587
H      -0.868268     -1.932000      0.901660
H      -2.156345     -0.553077     -0.664379
H       0.866538      1.946405      0.103565
