15
smiles: [C:1]([C:4]([C:2](=[O:3])[H:11])([C:6](=[O:7])[H:15])[H:13])([H:8])([H:9])[H:10].[O:5]([H:12])[H:14]
C       -1.01586800       1.36308900      -0.93392900
C       -0.34541400      -1.03340300      -0.75499700
O        0.58652300      -1.71863100      -1.07008300
C       -0.23301000       0.33031400      -0.11290300
O        0.29639100      -1.69746800       2.12491600
C        1.21038600       0.75974100       0.02897200
O        1.68915400       1.14521100       1.05766900
H       -2.04482000       1.03374000      -1.08941700
H       -1.04141000       2.32175500      -0.41676500
H       -0.55855700       1.51239200      -1.91454000
H       -1.38756800      -1.37626000      -0.93003600
H        0.77578500      -2.50799300       1.94819100
H       -0.66848900       0.25829700       0.88942100
H        0.94568000      -0.99686900       2.05189600
H        1.80509900       0.73156600      -0.90510900
