13
Extracted from Q-Chem output
C      -2.133289     -0.818908     -0.351670
N      -1.208373      0.066010      0.331130
C      -0.040024      0.390365     -0.369630
C       1.168738      0.404226      0.151144
C       2.567070      0.662435      0.258763
O       1.757980      0.146043      1.355911
H      -3.030585     -0.941190      0.255418
H      -2.436393     -0.365230     -1.297761
H      -1.006864     -0.240319      1.271073
H      -0.168820      0.695291     -1.400832
H      -1.717031     -1.811690     -0.569762
H       3.286259     -0.047777     -0.137374
H       2.928250      1.675310      0.408993
