15
Extracted from Q-Chem output
C       1.579737      0.258724     -1.161034
C       0.620760     -0.898333     -1.035080
O       0.953239     -2.025653     -1.301285
C      -0.181037      0.110453      1.713249
O      -0.879621      0.447176      2.765911
C      -0.808532     -0.599784     -0.611835
C      -0.982455      0.440312      0.495263
H       1.113539      1.109826     -1.663306
H       1.870753      0.581498     -0.158606
H       2.464427     -0.060445     -1.707201
H      -0.352912      0.263227      3.551748
H      -1.261179     -1.549594     -0.326254
H      -1.332503     -0.254625     -1.510038
H      -0.567645      1.405017      0.169485
H      -2.042771      0.610013      0.715575
