15
Extracted from Q-Chem output
C       1.536703      0.199934     -1.096375
C       0.576916     -0.673240     -0.315686
O       0.892444     -1.810316      0.020211
C      -0.073422      0.318035      1.240248
O      -0.417607     -0.459975      2.227127
C      -0.950417     -0.282817     -0.491086
C      -1.226819      0.870143      0.515082
H       1.593345     -0.185399     -2.118021
H       1.224636      1.244540     -1.128974
H       2.526768      0.132088     -0.650077
H       0.335686     -1.032580      2.437760
H      -1.544476     -1.160201     -0.251620
H      -1.099719      0.039278     -1.520877
H      -1.027513      1.839602      0.066715
H      -2.200293      0.831336      1.001987
