10
Extracted from Q-Chem output
N       1.436677      0.032355      0.121254
C       0.356396     -0.776197      0.047837
O       0.392551     -1.980611      0.178302
C      -0.961971     -0.063231     -0.232454
O      -0.894710      1.346921     -0.171570
H       2.345096     -0.383026      0.220972
H       1.341971      1.007932     -0.096914
H      -1.259674     -0.333337     -1.247521
H      -1.709913     -0.477484      0.447800
H      -1.046423      1.626679      0.732294
