10
Extracted from Q-Chem output
N       1.524375      0.087858      0.106294
C       0.408903     -0.506599     -0.186116
O       0.679276     -1.713755     -0.521943
C      -0.986410      0.035324     -0.166215
O      -1.075812      1.327662      0.377689
H       1.608228      1.067579      0.328094
H       1.829306     -1.147420     -0.255587
H      -1.335034      0.089228     -1.199430
H      -1.625263     -0.689060      0.349599
H      -1.005683      1.270224      1.332167
