15
smiles: [C:1]([C@@:2]12[C:3]([H:11])([H:12])[C@:4]1([O:5][H:13])[C-:6]=[O+:7]2)([H:8])([H:9])[H:10].[H:14][H:15]
C        2.02895800      -0.61715000       0.95590100
C        0.93826200       0.06408600       0.21803000
C        0.09761800      -0.37892000      -0.91463900
C       -0.54167400       0.16888100       0.37784800
O       -1.38748300      -0.57477500       1.15479000
C       -0.33886400       1.66405200       0.39062300
O        0.96118500       1.52651000       0.11039600
H        2.96453400      -0.56623400       0.39664400
H        1.76881800      -1.66585600       1.10116000
H        2.17290700      -0.15565800       1.93298400
H        0.07772800       0.19187600      -1.83543500
H       -0.03091200      -1.45157000      -1.00671300
H       -2.27669800      -0.50759300       0.79815500
H       -3.63516700       1.04918500      -0.69019000
H       -3.09588100       1.51023900      -0.46450300
