14
Extracted from Q-Chem output
C      -1.045487     -0.327544      0.787038
C      -1.070539     -0.475064     -0.719265
O      -0.262430      0.499467     -1.356037
C       0.823234      0.944090     -0.561624
C       1.286355     -0.125485      0.404230
O       0.260990     -0.495495      1.309703
H      -1.679899     -1.086707      1.249167
H      -2.088865     -0.347324     -1.092347
H      -1.439194      0.657745      1.069111
H      -0.733924     -1.482610     -0.996659
H       1.634038      1.211987     -1.242148
H       0.537543      1.845969     -0.004529
H       2.126534      0.242460      0.996869
H       1.628461     -1.005530     -0.155870
