9
smiles: [C:5](#[N:6])[H:9].[O:1]([C:2](=[C+:3][H:8])[O-:4])[H:7]
O        1.32237300       0.03685300      -0.05067600
C        0.72613300       1.12675300      -0.48635800
C        1.30014100       2.24040200      -1.12794000
O       -0.47747600       1.34431400      -0.52528100
C       -1.68949900      -2.41412000       0.80442300
N       -0.70147000      -1.85143900       0.68128500
H        0.63880900      -0.58799100       0.22912700
H        1.42269600       3.06864100      -0.41953100
H       -2.61319500      -2.93892400       0.91792800
