10
Extracted from Q-Chem output
N       2.855413     -0.080557      0.934346
C       1.876408      0.070787      0.358012
C       0.620524      0.230613     -0.362307
C      -0.095206      1.553720     -0.040205
O      -1.319266      1.194636      0.229638
C      -1.521210     -0.205995      0.194352
C      -0.412035     -0.835266     -0.127349
H       0.856621      0.324281     -1.433310
H      -2.522500     -0.528069      0.429598
H      -0.267253     -1.898590     -0.223560
