15
Extracted from Q-Chem output
C      -0.870684      1.196630      0.139569
N      -0.470046     -0.175968      0.321084
C      -1.376940     -1.151128     -0.246606
C       0.894157     -0.450753      0.052920
O       1.415008     -1.599201      0.311634
C       1.989499      0.470691      0.414358
H      -1.898595      1.321854      0.481997
H      -0.228158      1.848556      0.737042
H      -0.824840      1.530386     -0.909970
H      -1.569027     -0.974928     -1.316782
H      -2.329062     -1.117051      0.285312
H      -0.949158     -2.144439     -0.122752
H       2.700524      0.102843      1.145700
H       2.317042      1.250879     -0.265835
H       1.173711     -0.190334     -1.061790
