13
smiles: [H:6][H:7].[O:1]=[C:2]1[C:3]([H:8])([H:9])[C:4]([H:10])([H:11])[C:5]1([H:12])[H:13]
O        1.99253400       1.02206900       0.06802600
C        0.84082900       0.72517500       0.15391800
C        0.01095200       0.01329600       1.22002100
C       -1.16329600      -0.02045600       0.20769600
C       -0.35595000       0.85435000      -0.78601500
H        1.62839500      -1.79782400      -1.09427500
H        1.10465100      -2.30170200      -1.25604800
H       -0.16103900       0.64971000       2.09033300
H        0.41513800      -0.94009000       1.56096400
H       -2.09499400       0.41564600       0.56227500
H       -1.36868800      -1.01944300      -0.17355400
H       -0.70100900       1.88729300      -0.86396800
H       -0.19686500       0.46371300      -1.79137000
