13
Extracted from Q-Chem output
O       2.113345      0.517886     -0.188546
C       0.883874      0.075439     -0.139267
C       0.022739     -0.221010      1.096538
C      -1.233218     -0.050997      0.211802
C      -0.353595      0.604741     -0.877084
H       1.769159     -0.736398     -0.647969
H       0.939509     -1.244527     -0.704183
H       0.168313      0.614372      1.785246
H       0.180459     -1.155122      1.632291
H      -2.036797      0.558375      0.619535
H      -1.648283     -1.006161     -0.109605
H      -0.323238      1.693529     -0.792993
H      -0.496225      0.332108     -1.921013
