17
Extracted from Q-Chem output
C       2.844545     -0.001833      0.001481
C       1.507523     -0.424041      0.442875
C      -1.481408     -0.949801     -0.820099
C      -1.450605      0.367114     -0.104499
C      -2.657228     -0.489014      0.003884
O      -0.681354      0.505780      1.046903
C       0.676910      0.728285      0.775343
H       3.150821      1.038989      0.184171
H       2.745174     -0.135046     -1.089505
H       3.627665     -0.702656      0.291862
H      -0.863682     -1.734094     -0.405620
H      -1.570769     -0.947097     -1.898888
H      -1.514967      1.275682     -0.701874
H      -3.560089     -0.171342     -0.500155
H      -2.808466     -0.977244      0.957229
H       0.806691      1.576275      0.076357
H       1.136894      1.060219      1.725675
