17
Extracted from Q-Chem output
C       1.821789     -0.824159      0.109036
C       0.912455      0.215780     -0.442298
C      -1.047614     -0.019744     -1.279536
C      -1.657513      0.519953     -0.042394
C      -0.962682     -0.737604      0.313774
O      -0.912603      1.628056      0.395021
C       0.458247      1.256904      0.563257
H       2.824635     -0.387084      0.026721
H       1.838205     -1.726754     -0.502094
H       1.669117     -1.106503      1.168302
H      -0.558889      0.654341     -1.955509
H      -1.545953     -0.840687     -1.779318
H      -2.719687      0.694106      0.092939
H      -1.457927     -1.678128      0.118965
H      -0.329912     -0.769302      1.190116
H       1.049225      2.161162      0.395803
H       0.605202      0.946524      1.617836
