17
smiles: [C:1]1([H:8])([H:9])[C:2]([H:10])([H:11])[O:3][C:4]([H:13])=[C:5]=[C:6]([H:15])[C:7]1([H:16])[H:17].[H:12][H:14]
C       -1.02531200      -0.32365000       0.43903500
C       -0.77495200      -1.38416900      -0.64671000
O        0.55710300      -1.92408700      -0.64533200
C        1.51882600      -0.98259400      -0.45120200
C        1.32559200       0.26441000      -0.82858700
C        0.42671300       1.21418500      -0.91488200
C       -0.77859000       1.13352900      -0.00559200
H       -0.39938400      -0.56967200       1.30004300
H       -2.05888300      -0.41870900       0.78141900
H       -1.40770300      -2.25591600      -0.48398800
H       -1.00206200      -0.98241800      -1.64075800
H        1.54867200       1.27195600       2.68871500
H        2.40577000      -1.36903700       0.03542800
H        1.66353500       1.15394100       1.96250800
H        0.43691400       1.95205900      -1.71169700
H       -1.63868700       1.48844200      -0.58249700
H       -0.71105300       1.79360800       0.86443000
