15
Extracted from Q-Chem output
O      -0.194739      2.730512      0.525391
C      -0.124965      1.548063      0.099162
C      -1.194298      1.837984     -0.713805
C      -0.937090     -1.380670      0.150042
C       0.482059     -0.934910      0.387104
C       1.307851     -0.388320     -0.713454
C       0.864871      0.536826      0.404732
H      -1.394193     -0.847050     -0.685260
H      -2.167889      1.685446     -0.243226
H      -1.558211     -1.226226      1.034004
H      -0.955951     -2.444509     -0.093325
H       1.016090     -1.509431      1.135540
H       0.831517     -0.237510     -1.674279
H       2.364444     -0.614236     -0.754731
H       1.610076      0.859242      1.120120
