17
Extracted from Q-Chem output
C       2.317733     -0.020016     -0.204665
C       1.112538      0.508344      0.529639
O       0.035128      0.644129     -0.600408
C      -1.188256      1.097199     -0.037727
C      -1.655512     -0.181716      0.654810
C      -0.595865     -1.069787      0.062698
O      -0.805695     -1.744060     -1.042898
H       2.600191      0.560776     -1.096740
H       2.198908     -1.062627     -0.529457
H       3.167208     -0.002108      0.483522
H       1.305764      1.557066      0.798828
H      -1.845273      1.409283     -0.853081
H      -1.036611      1.939219      0.639354
H      -1.547852     -0.158862      1.736255
H      -2.660230     -0.516244      0.384365
H       0.168906     -1.508725      0.682152
H      -1.478090     -1.326073     -1.594177
