14
smiles: [C:1]([C:2][C:4]([H:12])([H:13])[H:14])([H:5])([H:6])[H:7].[C:3]([H:8])([H:9])([H:10])[H:11]
C       -0.86090400      -1.37860700      -0.15000900
C        0.29616900      -1.00167700       0.67429300
C       -0.64182200       2.17401900       0.29281400
C        1.53184300      -0.84536100      -0.10401700
H       -0.81202100      -1.17250700      -1.22919200
H       -0.88212100      -2.47325500      -0.01078900
H       -1.80544500      -1.03777500       0.27733000
H       -0.37337200       1.50239200       1.10678300
H       -0.44439400       3.20293100       0.58980200
H       -1.69983600       2.05880400       0.06217500
H       -0.04950600       1.93097700      -0.58808300
H        1.96733500      -1.85602000      -0.00871800
H        2.25859400      -0.18822900       0.37536600
H        1.43388300      -0.62514500      -1.17693200
