12
Extracted from Q-Chem output
O      -1.599170     -2.061637     -0.694728
C      -0.534345     -0.834120      0.546582
C      -0.379351      0.664158      0.608004
C       1.113084      0.921550      0.491901
C       0.342839      0.645281     -0.756514
C      -0.009384     -0.818016     -0.773042
N      -0.630401     -1.680543     -1.515511
H      -0.514347     -1.562598      1.344426
H      -1.058063      1.403087      1.004283
H       1.823939      0.187979      0.853727
H       1.389526      1.953049      0.676723
H       0.237868      1.337996     -1.577003
