15
Extracted from Q-Chem output
C       1.313349     -0.763174     -0.200515
C       0.344903      0.014269      0.671572
C      -0.576005      0.964495     -0.073303
O       0.009473      1.802753     -1.047727
C      -0.921892      0.821911     -1.483781
C      -0.498604     -0.880142      1.552488
O      -0.407767     -2.074417      1.602056
H       1.851758     -0.086480     -0.864061
H       0.792329     -1.512036     -0.797616
H       2.036207     -1.294369      0.417377
H       0.909601      0.646733      1.372975
H      -1.295019      1.479047      0.564099
H      -1.869149      1.211041     -1.844797
H      -1.238318     -0.348048      2.188956
H      -0.496854      0.009786     -2.064541
