15
Extracted from Q-Chem output
C       1.726410     -0.542056      0.096262
C       0.477557      0.135992      0.617383
C      -0.146754      1.200365     -0.266220
O      -0.325426      0.782824     -1.587875
C      -1.413853      0.566555     -0.698729
C      -0.811449     -0.693927      0.561673
O      -0.901011     -1.868879     -0.023095
H       2.567802      0.152966      0.090912
H       1.567149     -0.910167     -0.915701
H       1.986620     -1.393944      0.724973
H       0.615293      0.518524      1.630844
H      -0.048867      2.266833     -0.101219
H      -2.338983      1.107175     -0.873121
H      -1.516240     -0.448064      1.371491
H      -1.446581     -0.880824     -0.644438
