13
smiles: [C:1]1([H:6])([H:8])[C:2]([O:3][H:10])([H:9])[C:4]1([H:11])[H:12].[O:5]([H:7])[H:13]
C       -0.69247800      -0.34408400      -0.04151000
C       -0.25399100      -0.36397700      -1.47310400
O       -0.53119800       0.73512500      -2.28734600
C        0.75715000      -0.14980600      -0.40702600
O        0.87695000       0.07412900       2.92564900
H       -1.23418000       0.53276900       0.28897800
H        0.55503700      -0.06277100       2.03373900
H       -0.99613300      -1.27374500       0.42184100
H       -0.24980900      -1.32124800      -1.98794300
H       -1.46373300       0.71797200      -2.51076200
H        1.46164900      -0.94227400      -0.19329000
H        1.15386400       0.85319500      -0.32420100
H        1.52342900       0.77785300       2.85806900
