13
Extracted from Q-Chem output
C      -1.120736     -0.184030      0.378407
C      -0.250416     -0.308057     -0.799892
O      -0.731171      0.305210     -2.002755
C       0.915820      0.425962     -0.250117
O       1.139803      0.061793      1.737420
H      -1.599643      0.787543      0.468329
H       0.127694     -0.114304      1.554057
H      -1.748478     -1.033617      0.628116
H       0.007328     -1.355463     -0.989413
H      -0.223525     -0.018855     -2.751720
H       1.943375      0.105963     -0.376158
H       0.768168      1.488111     -0.100797
H       1.553439     -0.797365      1.891597
