13
Extracted from Q-Chem output
C      -1.828238     -0.150944      0.281007
C      -0.527337      0.144024     -0.404419
N      -0.208444     -0.631658     -1.480328
O       0.945080     -0.590234     -1.928382
C       1.119592      0.431684      0.386554
N       2.091032     -0.425248      0.591086
C       0.290494      1.313891      0.015808
H      -2.340085     -0.950606     -0.254461
H      -1.675743     -0.476393      1.314057
H      -2.480440      0.726526      0.308110
H       2.183431     -0.859180      1.494687
H       2.285923     -0.995538     -0.230968
H       0.135354      2.382517     -0.007821
