12
Extracted from Q-Chem output
C      -1.061832     -0.338524     -0.679742
C       0.376642     -0.397569     -0.394430
C       0.578476      1.178100     -0.338008
O       1.280423      1.758985     -1.111739
C       0.721159     -0.738939      0.949110
O      -0.266735     -0.839000      1.768316
H      -1.358485     -0.430471     -1.714955
H      -1.065470     -0.955959      1.143124
H      -1.677335      0.347087     -0.103462
H       1.050750     -0.761789     -1.162574
H      -0.038660      1.654776      0.438243
H       1.722850     -0.818559      1.352692
