11
Extracted from Q-Chem output
C      -0.780276     -1.193296     -0.430240
C      -0.026252     -0.161561     -0.056860
N      -0.487590      1.155782      0.134327
O      -1.876274      1.226863      0.285655
C       1.391863     -0.273041      0.138932
C       2.573358     -0.341806      0.324227
H      -1.848024     -1.085347     -0.550124
H      -0.320998     -2.153269     -0.610769
H      -0.068930      1.577398      0.954188
H      -2.164202      1.755510     -0.462726
H       3.623573     -0.416546      0.481313
