11
Extracted from Q-Chem output
C      -0.867840     -1.094430     -0.074592
C      -0.005313      0.013314      0.002250
N      -0.353600      1.349203     -0.190092
O      -1.698208      1.358180     -0.513439
C       1.427669     -0.191615      0.095153
C       2.604714     -0.384488      0.159421
H      -1.919725     -0.954141     -0.260969
H      -0.470591     -2.071390      0.152155
H      -0.436642      0.286273      1.052657
H      -1.938736      2.284168     -0.424841
H       3.655162     -0.549757      0.212142
