17
Extracted from Q-Chem output
C       2.540074     -0.560041      0.129518
N       1.120191     -0.481288      0.388281
C       0.356865     -0.301496     -0.657858
O       0.556522     -0.217716     -1.857427
N      -1.041592     -0.067571     -0.190437
C      -1.386333     -0.405563      1.011454
C      -1.807164      0.883537     -0.981052
H       2.769288     -1.409575     -0.520168
H       2.918284      0.338123     -0.369278
H       3.070199     -0.689630      1.073073
H       0.488717      0.242208      1.546744
H      -0.163605      0.568098      2.051051
H      -0.882329     -1.238517      1.474405
H      -2.334928     -0.057146      1.403012
H      -1.854392      0.521510     -2.004698
H      -2.808538      0.982425     -0.566781
H      -1.303899      1.851415     -0.982488
