16
Extracted from Q-Chem output
C       3.503197      0.439916     -0.126040
C       2.173309      0.162490      0.140465
C       0.897994      0.258267      0.201564
C      -0.233230     -0.574464     -0.220968
N      -1.453155     -0.332010      0.534748
C      -2.690437     -0.492566     -0.201063
C      -2.193004      0.853584      0.168875
H       3.804633      0.976742     -1.019714
H       2.647913     -0.900062      0.134895
H       4.278558      0.033965      0.509383
H      -0.375054     -0.361320     -1.297789
H      -0.007338     -1.645235     -0.146093
H      -3.511863     -0.946989      0.339888
H      -2.622692     -0.775133     -1.249114
H      -1.788373      1.473691     -0.626736
H      -2.643217      1.400280      0.988274
