12
Extracted from Q-Chem output
C      -1.695039     -0.063576     -0.701102
C      -1.169297      0.370418      0.660203
C       0.284970      0.335187      0.965248
O       0.919461     -0.092214     -0.132864
C       2.231591     -0.190865     -0.075594
C       3.416018     -0.310320     -0.116644
H      -2.780190      0.038729     -0.738180
H      -1.447947     -1.105144     -0.909865
H      -1.272262      0.542227     -1.503252
H      -1.623248     -0.198911      1.482240
H      -1.452819      1.404029      0.903306
H       4.474491     -0.409482     -0.129435
