12
Extracted from Q-Chem output
C      -1.568139     -0.258702     -0.560174
C      -0.890064      0.485883      0.582725
C       0.520075      0.919182      0.384606
O       0.971300      0.774516     -0.891124
C       1.915394      0.172788     -0.077100
C       2.851234     -0.578610      0.118347
H      -2.600225     -0.493463     -0.298349
H      -1.051127     -1.194026     -0.778747
H      -1.576622      0.334835     -1.474328
H      -0.908491     -0.075353      1.521590
H      -1.415974      1.420896      0.821746
H       3.680643     -1.156914      0.448190
