13
smiles: [C-:5]#[O+:6].[C:1](/[N:2]=[C:3](/[C:4]([H:11])([H:12])[H:13])[H:10])([H:7])([H:8])[H:9]
C       -1.83587600       0.20046600      -0.13924400
N       -0.45474700       0.07444800       0.26422900
C        0.20982100      -0.89311300      -0.19003000
C        1.64280100      -1.11849100       0.16311500
C        1.19359800       2.76185600       0.50261600
O        0.28513000       3.37075100       0.24573400
H       -2.47089000       0.18554400       0.74897000
H       -1.98112500       1.16989800      -0.62038200
H       -2.16524300      -0.59102500      -0.82676500
H       -0.24831700      -1.62336300      -0.87623000
H        1.76760200      -2.09584900       0.63651100
H        1.99024000      -0.34146200       0.84169100
H        2.26097300      -1.11813100      -0.73829100
