11
Extracted from Q-Chem output
C      -2.454748     -0.030090      0.335660
C      -1.025939     -0.300946      0.435851
C       0.184765     -0.328983      0.554797
C       1.690768      0.130001      0.473382
O       1.418256     -1.159742      0.616018
N       2.661729      0.448121     -0.363268
H      -2.810519     -0.248089     -0.673397
H      -2.698946      1.011670      0.562768
H      -3.022805     -0.664851      1.020002
H       3.194763     -0.278306     -0.825875
H       2.887448      1.409860     -0.536649
