14
Extracted from Q-Chem output
C      -1.759219      0.097752      0.258378
C      -0.425190      0.259677     -0.469253
C       0.567864      1.218617      0.162118
C       1.700616      0.561719      0.436479
N       1.597700     -0.788338      0.050955
C       0.407321     -0.987286     -0.454506
O       0.275430     -2.210441     -0.777436
H      -2.316652      1.034414      0.241099
H      -1.597892     -0.184375      1.299567
H      -2.363132     -0.674961     -0.218782
H      -0.613228      0.529386     -1.514665
H       0.372032      2.263676      0.347853
H       2.608477      0.936826      0.883260
H       1.520303     -2.066048     -0.257149
