12
Extracted from Q-Chem output
C       1.707554     -0.562553      0.085033
C       0.322106     -0.068061      0.348675
C      -0.253733      1.015689     -0.426550
C      -1.732257      1.026979     -0.088059
C      -1.094475     -0.200918     -0.544655
O      -0.470407     -0.743953      1.109880
H       1.750122     -1.648903      0.151523
H       2.352899     -0.147394      0.862528
H       2.067665     -0.205845     -0.876787
H      -2.318054      1.594279     -0.799207
H      -2.124419      0.983525      0.925505
H      -1.201195     -1.139031     -1.065574
