10
Extracted from Q-Chem output
O      -0.191584      1.704690     -0.494222
C       0.055683      0.564844     -0.185870
C      -1.036783     -0.375172      0.267498
O      -2.279840      0.245317      0.255380
C       1.400496      0.017361     -0.223227
C       2.492462     -0.473487     -0.241798
H      -2.132938      1.154784     -0.037564
H      -0.774485     -0.729464      1.273820
H      -1.021274     -1.253734     -0.391184
H       3.470266     -0.896516     -0.263641
