7
Extracted from Q-Chem output
O       1.804592     -1.156645      0.112820
C       0.797656     -0.544890      0.000185
N       0.502647      0.799878      0.165537
N      -0.856431      0.885207     -0.045491
N      -1.404317     -0.217745     -0.322683
O      -0.417811     -1.119625     -0.420824
H      -0.444044      1.355186      0.939514
