19
Extracted from Q-Chem output
C       2.279836      0.415245      1.066444
C       1.100292      0.710739      0.156586
C       0.249976     -0.473488     -0.138791
O      -0.459765     -0.809406      1.698316
C      -1.054108     -0.403339     -0.676259
C      -1.627351      0.871261     -1.243368
O      -1.410168     -1.563789     -1.401761
H       1.914829      0.070965      2.033876
H       2.920287     -0.361778      0.642542
H       2.890250      1.306749      1.215121
H       0.482758      1.506644      0.575355
H       1.448882      1.075245     -0.819989
H       0.754724     -1.430052     -0.230004
H      -0.424607     -1.723239      2.001330
H      -1.227242     -0.598741      0.644902
H      -1.274361      1.044540     -2.264510
H      -2.717260      0.813416     -1.277480
H      -1.369277      1.737721     -0.634546
H      -2.328990     -1.765933     -1.219851
