15
Extracted from Q-Chem output
C      -1.183923     -1.262213      0.391862
N      -0.018036     -0.469820      0.108300
C       1.388468     -0.925318      0.116510
C       2.243043      0.255504     -0.215085
C       1.337749      1.273387     -0.383697
C      -0.001363      0.821675     -0.186780
N      -1.128408      1.549775     -0.261998
H      -1.861718     -1.313817     -0.467057
H      -0.867267     -2.277627      0.623083
H      -1.734658     -0.878963      1.257249
H       1.637586     -1.328282      1.103250
H       1.519729     -1.726799     -0.617191
H       1.554745      2.306207     -0.634996
H      -2.039286      1.138832     -0.181484
H      -1.067757      2.511349     -0.536304
