11
Extracted from Q-Chem output
O       2.444241     -0.255542      0.106433
C       1.122863     -0.171020      0.068472
N       0.299432     -1.071940      0.398790
C      -1.024096     -0.496106      0.183371
C      -0.745072      0.926560     -0.355570
O       0.691313      1.015600     -0.373892
H       2.655268     -1.135065      0.436847
H      -1.591844     -1.099912     -0.527567
H      -1.586716     -0.477225      1.119185
H      -1.124356      1.719918      0.288471
H      -1.106458      1.086220     -1.371662
