12
Extracted from Q-Chem output
O      -0.520504      0.431889     -1.462425
C       0.021237      0.690653     -0.208512
C      -0.498815     -0.228431      0.868735
C      -1.301359     -1.252194      0.638604
O       2.120742      0.353803     -1.272907
C       1.533518      0.598665     -0.254724
H       0.224120      0.270632     -2.057861
H      -0.205288      1.727455      0.096030
H      -0.176799      0.006996      1.879986
H      -1.649162     -1.880753      1.448461
H      -1.636948     -1.478706     -0.365553
H       2.069497      0.766101      0.697637
