18
Extracted from Q-Chem output
C       2.306108     -0.766506      0.393125
C       0.842184     -0.870831     -0.043176
C       0.195185      0.449969      0.200726
C      -1.780248     -0.177762     -0.149628
C      -1.076019      1.176449     -1.115446
C      -0.070569      0.905182      1.496202
N      -0.244251      1.362101      2.547479
H       2.833992     -0.005547     -0.181361
H       2.804053     -1.725967      0.245889
H       2.383145     -0.507849      1.450499
H       0.370131     -1.713966      0.484227
H       0.802569     -1.103240     -1.111663
H      -1.443933     -0.833742      0.643211
H      -2.637899      0.369685      0.229582
H      -2.030750     -0.806221     -1.000112
H      -2.052224      1.201311     -1.618092
H      -0.935112      2.156664     -0.676139
H      -0.339811      0.977526     -1.886390
