13
smiles: [H:12][H:13].[O:1]([C@@:2]1([H:9])[C@@:3]2([H:10])[O:4][C@:5]1([H:11])[C:6]2=[O:7])[H:8]
O       -2.38874000      -0.24262900      -0.54076400
C       -1.41983800      -0.22925800       0.44244800
C       -0.09341900      -0.98442900       0.15248300
O        0.23834700       0.09394300      -0.80685400
C       -0.31005500       0.85298300       0.34103000
C        0.57012300      -0.07220900       1.19250600
O        1.36887700      -0.06763700       2.06283600
H       -1.94543100      -0.10441300      -1.38561800
H       -1.89327900      -0.38331500       1.41178000
H        0.08261200      -2.01219600      -0.14976700
H       -0.38323200       1.93269400       0.25345200
H        2.73191100       0.56855000      -1.44895100
H        3.45135600       0.71191700      -1.57675000
