13
Extracted from Q-Chem output
O      -2.333680     -0.311440     -0.032521
C      -1.047012     -0.194819      0.452933
C       0.098446     -0.874852     -0.343028
O      -0.062775      0.158031     -1.374580
C      -0.146857      0.928331     -0.126428
C       1.049043      0.095471      0.408813
O       1.642784      0.037935      1.560918
H      -2.294325     -0.193749     -0.987944
H      -1.051967     -0.325268      1.533185
H       0.224415     -1.907432     -0.657567
H      -0.307734      2.001293     -0.189640
H       1.943403      0.335969     -0.583982
H       2.294405      0.274797      0.324804
