12
smiles: [C:1]([C:3]([C:2](=[O:4])[H:8])([H:9])[H:11])([H:5])([H:6])[H:7].[H:10][H:12]
C       -0.79553600      -1.14040200       0.97553100
C       -0.68842200       0.56368000      -0.86112900
C        0.04498500      -0.53849600      -0.14843100
O       -0.25595400       1.66557300      -1.05610900
H       -1.75365500      -1.50811000       0.60119200
H       -0.27797000      -1.98025700       1.43903100
H       -0.99959700      -0.40125900       1.75202100
H       -1.70882700       0.29275600      -1.21390400
H        0.26447100      -1.30986100      -0.89578500
H        2.97447400       2.34327000      -0.27831100
H        0.99460200      -0.14539100       0.21641500
H        2.25603300       2.24444300      -0.44727900
