12
Extracted from Q-Chem output
C      -1.041021     -0.727826      0.628411
C      -0.322253      0.288086     -0.484434
C       0.934425     -0.261848     -0.054313
O      -0.511213      1.540240     -0.220780
H      -2.081360     -0.530917      0.380556
H      -0.851438     -1.793660      0.518227
H      -0.846167     -0.383638      1.640584
H      -0.658689     -0.107900     -1.458754
H       1.322541     -1.198432     -0.446781
H       1.708922      1.336116     -0.736384
H       1.332523      0.086112      0.890785
H       1.007071      1.777426     -0.617089
