18
smiles: [C:1]([C:2]([C:3]1([H:12])[C:4]([H:14])([H:15])[C:5]1([H:16])[H:17])([H:10])[H:11])([H:7])([H:8])[H:9].[O:6]([H:13])[H:18]
C       -2.60244900      -0.70526700       0.25214000
C       -1.50677100       0.25654300       0.69634900
C       -0.48613300       0.51255800      -0.38425400
C        0.90360900       0.94441400      -0.03292100
C        0.65941200      -0.43579200      -0.57356100
O        3.94814600      -0.42806000       0.10872900
H       -2.17978200      -1.66933800      -0.03988400
H       -3.14391200      -0.30907500      -0.61028100
H       -3.32830700      -0.88237700       1.04794100
H       -1.95155800       1.20642900       1.01009300
H       -0.99735100      -0.14674200       1.57810600
H       -0.89598600       0.93896600      -1.29499600
H        3.00274000      -0.28134400       0.05953700
H        1.39997100       1.66319700      -0.67153000
H        1.14812600       1.03838800       1.01815600
H        0.98979500      -0.65808000      -1.57966400
H        0.74032500      -1.26756900       0.11619000
H        4.30236800      -0.08521300      -0.71274400
