19
Extracted from Q-Chem output
C       1.452277      1.164192      0.166563
C       0.667610     -0.145142      0.158392
C       1.533825     -1.304895     -0.324576
C      -0.575104     -0.019929     -0.699062
C      -1.779117     -0.882174     -0.468374
C      -1.856934      0.584268     -0.251823
O      -1.858852      0.871289      1.641892
H       0.838847      2.002908      0.504226
H       2.325175      1.096958      0.818935
H       1.805914      1.408472     -0.838849
H       0.340863     -0.368198      1.178498
H       2.416231     -1.423204      0.307902
H       1.877481     -1.133114     -1.348523
H       0.977564     -2.243736     -0.311336
H      -0.357633      0.246688     -1.733417
H      -2.349083     -1.285520     -1.297494
H      -1.773914     -1.500863      0.421306
H      -2.354566      1.308931      0.717814
H      -1.101221      1.450011      1.784229
