12
Extracted from Q-Chem output
C      -1.194098      0.510721     -0.170725
C      -0.092824      1.474256      0.121289
C       1.152380      0.653015      0.154886
C       0.788473     -0.813422      0.090799
O      -0.077081     -1.179642      1.158757
C      -0.655453     -0.901029     -0.111109
H      -2.041523      0.693992      0.497409
H      -1.563614      0.793460     -1.167540
H       1.762474      0.925748      1.021782
H       1.739868      0.991549     -0.711502
H       1.486022     -1.579063     -0.232850
H      -1.140949     -1.738935     -0.600765
