13
Extracted from Q-Chem output
O       2.393954      0.367092     -0.375456
C       1.115103      0.305259     -0.316619
C       0.603054     -1.017731     -0.226146
C      -0.794601     -0.831216      0.373265
C      -1.100475      0.673348      0.118065
N       0.224253      1.267534     -0.119724
H       0.670852     -1.574151     -1.159036
H       2.119628     -0.814719     -0.014165
H      -1.553702     -1.462315     -0.088662
H      -0.813746     -1.035867      1.446742
H      -1.738870      0.818761     -0.757740
H      -1.577110      1.157989      0.970955
H       0.471812      2.208771      0.128797
