19
smiles: [C:1]([C:2](=[C:3]([H:12])[H:13])[H:11])([H:8])([H:9])[H:10].[C:4]1([C:7]([H:17])([H:18])[H:19])=[C:6]([H:16])[C:5]1([H:14])[H:15]
C       -2.21328100       0.65385300      -0.18535500
C       -2.13133200      -0.71305900      -0.78646600
C       -1.05148100      -1.23505300      -1.34687300
C        1.56168600       0.39690100       0.74233900
C        2.59670300       0.01356900      -0.27446800
C        1.93065600       1.34052100      -0.04978700
C        0.75135500      -0.11667400       1.85963300
H       -2.98256600       1.25153500      -0.68109600
H       -1.26246700       1.18238300      -0.26644400
H       -2.48592300       0.59929900       0.87188200
H       -3.04194200      -1.30695200      -0.75101000
H       -1.05706800      -2.23331100      -1.76733300
H       -0.11979200      -0.68142100      -1.40559500
H        2.31020000      -0.59765100      -1.13116900
H        3.63169200      -0.13258800       0.03707000
H        1.86302500       2.36171000      -0.38055800
H        1.39929800      -0.49385500       2.65409900
H        0.10360900       0.65742700       2.27128100
H        0.13295100      -0.95285500       1.52550800
