17
Extracted from Q-Chem output
C       2.312786      0.554173      0.337474
C       0.400759     -0.293968     -0.262106
C      -0.056409     -1.220835      0.539248
C      -1.548170     -1.030949      0.472668
C      -1.713714      0.032680     -0.639773
C      -0.379384      0.917444     -0.776848
O      -0.223656      1.917270      0.026734
H       2.662153      0.499307      1.367741
H       3.003170      1.093719     -0.310114
H       2.318619     -0.478770     -0.046145
H       0.492940     -1.896132      1.175695
H      -1.882061     -0.654162      1.442536
H      -2.104128     -1.944806      0.257483
H      -1.877317     -0.458902     -1.599176
H      -2.523603      0.731967     -0.444955
H      -0.203065      1.088362     -1.855188
H       1.385285      1.220277      0.371016
