16
smiles: [C:1](=[C:2]([N:3]([C:4](=[C:5]([H:14])[H:15])[H:13])[H:12])[H:11])([H:8])[H:9].[C:6](=[O:7])([H:10])[H:16]
C       -1.59424100       0.64825300       1.27055800
C       -1.57397000       0.05936600       0.07601500
N       -0.66764700       0.18042600      -0.95924800
C        0.54773600       0.83388800      -1.01399200
C        1.24219900       1.43781200      -0.05081600
C        1.20062800      -2.07455700       0.11527800
O        0.65403700      -2.59381400      -0.81288700
H       -0.86420000       1.36422900       1.60844300
H       -2.41047600       0.41813200       1.94037200
H        0.63365700      -1.62012300       0.95057900
H       -2.37643800      -0.62563200      -0.17784700
H       -0.93229200      -0.28603100      -1.80530600
H        0.96384200       0.81412100      -2.01604900
H        0.93676100       1.49152900       0.98051400
H        2.19224500       1.88264300      -0.31058500
H        2.30385600      -2.02005000       0.18948000
