10
Extracted from Q-Chem output
N       1.824035     -0.422449      0.190964
C       0.496031     -0.125964      0.020591
N      -0.446109     -1.039647      0.033136
N      -1.585885     -0.357472     -0.023217
N      -1.401930      0.952578     -0.251058
C      -0.039891      1.199291     -0.196500
H       2.453825      0.267853     -0.178412
H       2.089770     -1.374695      0.006758
H      -2.461895     -0.811228     -0.215546
H      -1.057131      1.672820      0.603578
