19
Extracted from Q-Chem output
C       1.697660     -1.512861     -1.000910
C       0.729891     -1.409306      0.170148
O       0.661408      2.216997      0.356833
C      -0.581550      1.777179      0.853760
C      -1.442289      1.192721     -0.251038
O      -0.778634      0.155299     -0.942679
C      -0.692173     -1.086672     -0.263054
H       1.718953     -0.586070     -1.577007
H       1.403032     -2.314052     -1.683050
H       2.712507     -1.720621     -0.658845
H       1.074559     -0.648655      0.877439
H       0.707007     -2.355164      0.720636
H      -0.440303      1.037670      1.655048
H      -1.085118      2.641883      1.292165
H      -2.398283      0.839469      0.157276
H      -1.648445      1.960428     -0.999528
H       0.945254      1.569751     -0.296033
H      -1.048065     -1.855473     -0.957652
H      -1.362350     -1.090861      0.604283
