19
Extracted from Q-Chem output
C       1.956523     -1.015311     -0.923336
C       1.266857     -1.080964      0.391380
O       0.752618      1.212695      0.189058
C      -0.469527      1.528842      0.650455
C      -1.535274      1.392025     -0.439471
O      -1.417666      0.099187     -1.066888
C      -1.215155     -0.932202     -0.249680
H       2.188527      0.014893     -1.174405
H       1.357278     -1.457570     -1.721684
H       2.880243     -1.602082     -0.852571
H       1.650737     -0.452508      1.179811
H       0.991310     -2.085898      0.719822
H      -0.801506      0.864236      1.487400
H      -0.544705      2.545604      1.087429
H      -2.556004      1.511020     -0.054855
H      -1.361001      2.100525     -1.247521
H      -0.062571     -0.790206      0.211507
H      -1.164249     -1.868785     -0.801690
H      -1.826502     -0.988498      0.654359
