9
Extracted from Q-Chem output
N      -0.341381      0.877129      0.006864
C       1.169899      0.650865      0.208302
C       1.181982     -0.697268      0.127629
N      -0.071717     -1.346652     -0.090632
C      -0.952295     -0.451888     -0.161969
H      -0.697770      1.381027      0.817358
H      -0.467019      1.481991     -0.803121
H       2.055582     -1.325087      0.213173
H      -2.015404     -0.568648     -0.320508
