14
Extracted from Q-Chem output
O       1.668762      1.029220      0.603570
C       1.576946     -0.240380     -0.026201
C       0.198646     -0.864164      0.132285
C      -0.911779     -0.102664     -0.537794
C      -2.284362     -0.165578      0.002030
O      -1.206511      1.206200      0.069143
H       1.361275      1.701643     -0.006207
H       1.846668     -0.165181     -1.086572
H       2.323634     -0.875361      0.453352
H       0.202975     -1.870938     -0.298576
H      -0.046663     -0.980723      1.192386
H      -0.726030      0.082432     -1.599159
H      -0.918755      1.172262      0.989803
H      -2.951914      0.212994     -0.785536
