14
Extracted from Q-Chem output
O       1.893926      0.954227      0.568455
C       1.651196     -0.265383     -0.099270
C       0.262332     -0.830160      0.171087
C      -0.836656     -0.063223     -0.511419
C      -2.200775      0.008976      0.045295
O      -1.027329      1.301683     -0.051110
H       1.189344      1.568979      0.351219
H       1.804966     -0.155758     -1.182873
H       2.408462     -0.961822      0.263564
H       0.213697     -1.862241     -0.191993
H       0.072277     -0.854630      1.246963
H      -0.739313     -0.021464     -1.596370
H      -1.636053      1.049656      0.823359
H      -2.923180      0.270924     -0.734380
