13
Extracted from Q-Chem output
C      -1.463037     -0.114343      0.505668
C      -0.626967     -0.910687     -0.393442
C       0.675841     -0.538681     -0.782193
N       1.403302     -0.218000      0.463851
C       1.621325      1.091253      0.500623
O       1.164096      1.956064     -0.263082
H      -1.496240     -0.618121      1.480352
H      -2.493785     -0.103322      0.139074
H      -1.070941      0.890921      0.646613
H      -1.042799     -1.864755     -0.721768
H       1.190316     -1.252643     -1.422942
H       0.600334      0.482172     -1.279084
H       2.310398      1.381277      1.308684
