19
Extracted from Q-Chem output
C      -2.521774     -0.752270      0.046358
C      -1.074739     -1.012982     -0.354249
C      -0.083810      0.038935      0.111797
C       1.365620     -0.393061     -0.188354
C       2.502017      0.567844      0.125723
C      -0.410253      1.404683     -0.035095
O       0.087670      2.111103      0.906937
H      -3.172498     -1.567076     -0.276748
H      -2.613905     -0.655254      1.130087
H      -2.909902      0.166429     -0.400882
H      -0.755636     -1.972310      0.064269
H      -1.010851     -1.138779     -1.444703
H       0.264613      0.938860      1.302265
H       1.419145     -0.657818     -1.253750
H       1.531539     -1.328158      0.353928
H       3.450038      0.120794     -0.178655
H       2.566388      0.792455      1.191907
H       2.399278      1.516225     -0.403310
H      -1.050132      1.901084     -0.770383
