14
Extracted from Q-Chem output
C      -0.320595     -1.783785      1.156839
C      -0.695569      0.577371     -0.291977
C      -0.928025      1.779416     -1.046851
O      -2.012063      2.292339     -1.221664
C       0.538324      0.030683     -0.109727
O       0.773898     -1.084895      0.588258
N       1.709268      0.496017     -0.623176
H       0.109084     -2.655538      1.643316
H      -0.837820     -1.166589      1.894210
H      -1.023169     -2.101343      0.383952
H      -1.565872      0.106473      0.138280
H      -0.032011      2.260933     -1.501004
H       1.746129      1.436854     -0.966392
H       2.549851      0.129886     -0.213919
