15
Extracted from Q-Chem output
C      -1.197829      0.214760      0.832113
C      -0.390094     -0.263794     -1.524784
C       0.598220      0.679778     -0.896736
C       0.285802      2.086888     -0.738590
N       0.061084      3.203865     -0.601214
N      -0.115553     -0.271044     -0.028229
C       0.703499     -1.310201      0.599691
H      -1.775166      0.948446      0.278857
H      -1.840168     -0.631246      1.074464
H      -0.789603      0.653812      1.744684
H       0.171348     -1.113764     -1.926569
H       1.673882      0.510321     -0.895629
H       1.514539     -1.580823     -0.072283
H       0.076693     -2.185316      0.771832
H       1.108951     -0.957053      1.549626
