12
Extracted from Q-Chem output
O       0.161560     -1.377200     -1.264056
C       0.047573     -0.325032     -0.372996
C      -0.837641     -0.310466      0.830573
C      -0.247003      1.067788     -0.819538
O       0.841788      1.606745     -0.338583
C       1.242248      0.417584      0.293453
H      -0.190695     -2.160380     -0.837036
H      -1.910640     -0.227837      0.666161
H      -0.587195     -1.050247      1.591128
H      -1.102542      1.665099     -1.106934
H       0.198913      0.466805      1.293918
H       2.306237      0.203759      0.249243
