12
Extracted from Q-Chem output
C      -1.508543     -0.390411     -0.627624
C      -0.099254      0.015911     -0.444887
C       0.327235      1.321320     -0.337651
O       1.958340      1.102137     -0.239135
C       1.612683      0.174987      0.558076
O       1.360031      0.443488      1.778756
N       0.933399     -0.894536     -0.132537
H      -1.615088     -0.947289     -1.561702
H      -1.854954     -1.027746      0.189587
H      -2.132972      0.501495     -0.683357
H       0.498266      1.217342      1.226404
H       0.640457     -1.656415      0.462956
