15
Extracted from Q-Chem output
O       3.196003     -0.295032     -0.071770
C       2.002163      0.106690     -0.363993
N       2.226626     -0.438230     -1.485201
C      -1.137537     -1.293367      0.006507
C      -1.314269      0.171785      0.379132
C      -0.228569      1.077764     -0.189171
N       1.100452      0.784219      0.326738
H      -0.193290     -1.691665      0.381894
H      -1.142381     -1.426720     -1.077618
H      -1.941856     -1.900880      0.422936
H      -1.338569      0.284060      1.468287
H      -2.277001      0.540364      0.013506
H      -0.452514      2.125203      0.022969
H      -0.178201      0.976637     -1.275645
H       1.332573      0.998219      1.281497
