13
Extracted from Q-Chem output
C       1.336013      0.637806      0.216393
C       0.480458     -0.232723     -0.666372
C      -0.203137     -1.379623     -0.110392
N      -1.750117     -0.034968      1.310678
C      -1.682844      0.695268      0.369004
O      -0.864237      0.215626     -0.940080
H       1.476541      1.613342     -0.250088
H       0.885698      0.774645      1.198179
H       2.315816      0.171944      0.336305
H       0.948601     -0.415738     -1.634643
H      -0.640711     -2.083960     -0.803815
H      -0.249016     -1.597772      0.943186
H      -2.050548      1.656378      0.017783
