14
Extracted from Q-Chem output
O      -2.608131      1.464555     -0.990433
C      -2.047305      0.491080     -0.261615
N      -0.877536      0.567315      0.181864
C      -0.363174     -0.538494      0.954301
C       0.935680     -1.079971      0.350193
C       2.036983     -0.121978      0.388946
C       2.939421      0.662761      0.440645
H      -2.737416     -0.344345     -0.115790
H      -1.947881      2.163944     -1.077935
H      -1.083806     -1.365531      1.028171
H      -0.157987     -0.187754      1.968925
H       1.231183     -1.980174      0.895828
H       0.753779     -1.378829     -0.685566
H       3.739039      1.363437      0.483300
