14
Extracted from Q-Chem output
C      -2.280798     -0.214662     -0.308168
C      -0.843892     -0.598792     -0.051212
N      -0.033289      0.395265      0.410182
O      -0.432381     -1.725236     -0.236226
C       1.357721      0.156810      0.697932
C       2.254472      0.348284     -0.509425
O       3.417568      0.621713     -0.429787
H      -2.919522     -0.836636      0.318553
H      -2.495126      0.835151     -0.108057
H      -2.518954     -0.439313     -1.347382
H      -0.405509      1.319971      0.521879
H       1.702574      0.801050      1.506879
H       1.469194     -0.883186      1.017394
H       1.752745      0.207817     -1.489570
