13
Extracted from Q-Chem output
N       0.767849     -0.804069      1.031779
C       1.757014     -0.086090      0.556107
C       1.184252      0.451194     -0.719260
C      -0.054521     -0.272102     -1.093054
C      -0.504108     -0.687467      0.313609
C      -0.935312      0.788094      0.453201
N      -0.150185      1.160195     -0.748333
H       1.839294      0.851369     -1.478875
H      -0.311576     -0.686504     -2.059014
H      -1.203564     -1.497845      0.498924
H       0.813161     -1.233787      1.942753
H      -1.986633      0.940002      0.213255
H      -0.674855      1.301621      1.380921
