16
Extracted from Q-Chem output
C      -1.108536      1.439706     -0.494520
C       0.081414      0.870001      0.269608
C       0.173603     -0.632798      0.246917
C      -0.908947     -1.538876      0.719686
C       1.371615     -0.940469     -0.264211
C       2.035836      0.328478     -0.565441
N       1.338819      1.361142     -0.279323
H      -1.079737      1.112798     -1.535747
H      -1.077370      2.528424     -0.475561
H      -2.050690      1.109455     -0.053072
H      -0.615892     -2.585669      0.643327
H      -1.819752     -1.397431      0.131348
H      -1.167192     -1.330241      1.761011
H       1.782242     -1.927759     -0.427475
H       3.029889      0.422994     -0.993671
H       0.029836      1.212125      1.311862
