10
Extracted from Q-Chem output
C      -0.783735      0.859311      0.056877
O      -0.754297     -0.171596     -0.787927
C       0.503885     -0.780177     -0.936545
C       1.108044     -0.922332      0.461763
N       0.665438     -0.166549      1.310098
H      -1.784196      1.060992      0.427370
H      -0.165646      1.723746     -0.193790
H      -0.011045      0.367229      1.834482
H       1.202949     -0.152354     -1.501764
H       0.363642     -1.731565     -1.443206
