17
Extracted from Q-Chem output
C      -1.471300      0.072405      0.380935
C      -0.554913     -1.596845     -0.424047
O       0.700640     -1.201753     -0.828603
C       1.518162     -0.595274      0.177224
C       1.441287      0.916689      0.228555
C       0.374921      1.689780     -0.047612
C      -0.988444      1.287589     -0.267016
H      -1.011137     -0.181332      1.331083
H      -2.531302     -0.144937      0.317811
H      -0.587259     -2.199499      0.485920
H      -1.072362     -2.071871     -1.257667
H       1.287526     -1.062667      1.144587
H       2.541663     -0.880980     -0.071614
H       2.382441      1.400870      0.462891
H       0.560423      2.760346     -0.098230
H      -0.962001     -0.160764     -0.679842
H      -1.681036      1.886268     -0.837935
