12
smiles: [H:8][H:9].[O:1]=[C:2]1[N:3]=[C:4]([H:10])[C@@:5]2([H:11])[O:6][C@@:7]12[H:12]
O       -0.00493100       3.03043500       0.20397300
C       -0.00600300       1.86021100      -0.00591100
N        0.92950500       1.19163400      -0.88451600
C        0.54711400      -0.01467900      -1.00651900
C       -0.63918400      -0.39999300      -0.16352700
O       -0.32964100      -0.21967200       1.21457800
C       -0.99228900       0.83100100       0.52319500
H        1.26600500      -2.52119500       0.94967200
H        1.42384100      -3.03953000       0.43899800
H        1.07750400      -0.70899000      -1.65235500
H       -1.32532100      -1.19795300      -0.41580300
H       -1.98084800       1.11259300       0.86071300
