12
Extracted from Q-Chem output
O       0.809425      2.517509      0.477692
C       0.503565      1.386522      0.190702
N       1.300071      0.446444     -0.414835
C       0.517492     -0.710150     -0.637323
C      -0.886106     -0.548948     -0.094801
O      -0.852434     -0.319321      1.296619
C      -0.895079      0.813194      0.427755
H       1.406380     -0.981015      0.245219
H       0.923915     -1.758394      0.125732
H       0.667566     -1.223725     -1.588679
H      -1.729947     -1.094178     -0.498850
H      -1.773457      1.441884      0.493351
