15
smiles: [C:1]([C:2](=[C:3]([H:10])[H:12])[C:4]([O:5][H:15])([H:13])[H:14])([H:6])([H:7])[H:9].[H:8][H:11]
C        0.28132500       1.20699900       1.09428000
C        0.25633800      -0.11139900       0.37734200
C        1.31700600      -0.89654300       0.26308100
C       -1.07848800      -0.47365100      -0.20603300
O       -1.03433300      -1.72876700      -0.84420300
H        1.27565200       1.42379100       1.48293400
H       -0.00898300       2.02393400       0.42720300
H        0.77808900       1.46858300      -2.66046800
H       -0.42086400       1.21321200       1.93303300
H        1.26065900      -1.84158300      -0.26004800
H        0.95280000       0.94732200      -2.15834400
H        2.26964100      -0.60833500       0.69210500
H       -1.37179300       0.31660300      -0.91317400
H       -1.82352900      -0.46941400       0.60363500
H       -1.89478700      -1.91097100      -1.22197500
