11
Extracted from Q-Chem output
O       2.349717     -1.056898     -0.001956
C       1.314490     -0.428437      0.062139
N       0.010826     -1.154333     -0.421501
C      -1.028392     -0.425504     -0.321957
C      -0.654928      0.894220      0.229204
C       0.811965      0.793679      0.434385
H       0.033014     -2.103158     -0.771857
H      -1.249689      1.066638      1.137968
H      -2.020368     -0.754692     -0.608560
H      -0.979824      1.666040     -0.483725
H       1.423145      1.587579      0.827724
