12
Extracted from Q-Chem output
C       2.157121      0.392254     -0.655691
O       0.745014      0.161090     -0.591062
C       0.345316     -0.817326      0.150030
C      -1.134563     -0.861292      0.141606
C      -1.864742      0.254957      0.762982
O      -1.923074      0.047622     -0.623824
H       2.452740      0.328762     -1.701907
H       2.345872      1.397530     -0.281155
H       2.671012     -0.355372     -0.053721
H      -1.558987     -1.855401      0.246454
H      -1.305758      1.131517      1.081601
H      -2.772120      0.041254      1.320850
