15
Extracted from Q-Chem output
C       2.371399      0.387018     -0.152049
O       1.061214      0.554140      0.327180
C       0.308413     -0.632074      0.299363
C      -1.102133     -0.297820      0.733191
C      -2.825171      0.540377     -0.875449
N      -1.728679      0.653093     -0.183842
H       2.373569      0.036236     -1.191570
H       2.932575     -0.329306      0.461173
H       2.863904      1.356674     -0.103388
H       0.738881     -1.382458      0.977938
H       0.299940     -1.057241     -0.714548
H      -1.717351     -1.197892      0.753590
H      -1.076973      0.133730      1.737436
H      -3.243445     -0.459520     -0.633015
H      -1.196812      1.509253     -0.283934
