14
smiles: [C:1]([C:2]1=[C:6]([O-:7])[C:5]([H:13])=[C+:4][N:3]1[H:11])([H:8])([H:9])[H:10].[H:12][H:14]
C       -1.85460200      -0.12388400      -0.04894200
C       -0.40985200      -0.39105200      -0.00182200
N        0.27047200      -0.98615200       0.88639500
C        1.78755900      -1.09018000       0.60605200
C        1.87978100      -0.45827700      -0.59212000
C        0.61430900       0.03011200      -1.09611700
O        0.26263800       0.62638700      -2.08153900
H       -2.00962400       0.95255400      -0.15003500
H       -2.38240800      -0.49871300       0.82629200
H       -2.26504100      -0.57378200      -0.95572700
H       -0.11378100      -1.37998700       1.73302700
H        1.02713600       2.02626700       1.02075300
H        2.80487800      -0.32484100      -1.13157900
H        0.40204900       2.43007700       1.04472600
