13
Extracted from Q-Chem output
N      -1.807202      0.635593     -0.031565
C      -0.426794      0.318641      0.058726
C       0.019635     -0.964305      0.019376
O      -0.677049     -2.096082     -0.099592
N       1.379000     -0.983978      0.091148
C       1.941571      0.264733      0.267252
C       0.774197      1.112557      0.174197
H      -2.039330      1.158957     -0.863813
H      -2.148021      1.142758      0.772431
H      -1.607945     -1.835334     -0.125848
H       1.920944     -1.827852      0.033483
H       1.574878      1.016613     -0.806402
H       0.822225      2.171672      0.391899
