17
Extracted from Q-Chem output
C       2.217887      0.013953      0.222669
C       0.744241     -0.236631      0.091730
C       0.029097     -1.234029      0.780710
C      -1.426064     -0.956968      0.458271
C      -1.490031      0.087601     -0.673311
C      -0.151708      0.814563     -0.576906
O      -0.175843      1.981155      0.229833
H       2.356990      0.917748      0.818308
H       2.689627      0.188143     -0.746581
H       2.704454     -0.817840      0.729654
H       0.642348     -1.393341     -0.396956
H      -1.840033     -0.567241      1.397026
H      -1.994896     -1.863402      0.249967
H      -1.555520     -0.421086     -1.638842
H      -2.329578      0.780990     -0.611775
H       0.228276      1.149566     -1.542967
H      -0.547357      1.756939      1.086880
