11
Extracted from Q-Chem output
C      -0.132105      1.043524      0.321815
C       1.112730      0.253003      0.390321
C       0.559292      0.368861     -0.868144
N      -1.089819     -0.666796     -0.955797
C      -1.167105     -0.112361      0.373218
C      -0.091264     -1.052340     -0.003151
H      -0.233016      2.115252      0.417013
H       1.938452     -0.089989      0.984412
H       0.807523      0.504439     -1.907442
H      -1.982938     -0.318182      1.050601
H       0.286299     -2.045073      0.198052
