16
Extracted from Q-Chem output
C       2.072893      0.346921      0.202851
N       1.150112     -0.454134     -0.576127
C       0.021441     -0.931115      0.150802
C      -1.048817     -0.008826      0.689789
C      -1.306715      1.123077     -0.244203
C      -2.112205     -0.040227     -0.764959
C      -1.300133     -1.170869     -0.499675
H       1.609925      1.224993      0.676870
H       2.887183      0.688148     -0.436140
H       2.508969     -0.267517      0.994129
H       0.297573     -1.716963      0.852108
H      -1.513898     -0.141396      1.655379
H      -0.403255      1.461600     -0.747263
H      -1.920225      1.953826      0.086481
H       0.886701     -0.018107     -1.445401
H      -1.757169     -2.154256     -0.441781
