13
Extracted from Q-Chem output
C      -1.710511     -0.442804      0.398488
C      -0.472580     -0.033723     -0.369132
C       1.257106      1.505102      0.101609
C       1.759724      0.129865      0.157163
O       2.930172     -0.106363      0.372280
N       0.722311     -0.734809      0.004139
H      -1.940049     -1.492347      0.196949
H      -1.555079     -0.324245      1.470898
H      -2.572114      0.152490      0.095927
H      -0.638397     -0.018147     -1.449868
H       1.443904      1.936720     -0.893000
H      -0.252000      1.060339     -0.062170
H       0.805175     -1.733814      0.073956
