14
Extracted from Q-Chem output
C       2.311942      0.269449      0.227995
N       1.268605      0.159179     -0.768986
C      -0.040867      0.046171     -0.351300
N      -1.024211      0.361252     -1.182018
N      -2.161924      0.147823     -0.538815
C      -1.900161     -0.424879      0.715928
C      -0.468263     -0.388274      0.955933
H       2.255853     -0.579914      0.906577
H       3.278439      0.251061     -0.275163
H       2.241522      1.183785      0.830195
H       1.376199      0.756495     -1.571927
H      -3.018316      0.144340     -1.063456
H      -2.663767     -0.360266      1.482122
H      -1.599629     -1.527085      0.586855
