13
Extracted from Q-Chem output
O      -2.889814     -0.652591     -0.032892
C      -1.754543     -0.298010      0.015505
C      -1.075609      1.082781     -0.092602
C       0.217121      0.320473     -0.014252
C       2.281175      0.022588      0.000946
O       1.298324      0.636960     -0.691124
C      -0.412717     -1.033311      0.173944
H      -1.324710      1.746683      0.739918
H      -1.245845      1.620356     -1.031606
H       2.369701      0.251830      1.047345
H       3.079220     -0.405508     -0.586439
H      -0.166048     -1.753271     -0.618108
H      -0.310784     -1.536005      1.137076
