16
smiles: [C:1]([C:2]1([H:10])[C:3]([H:11])([H:12])[O:5][C:6]1([H:15])[H:16])([H:7])([H:8])[H:9].[C:4]([H:13])[H:14]
C        2.10867300      -0.07188100       0.13596100
C        0.74417400       0.57863800       0.21093100
C       -0.18777300       0.42970700      -1.00178600
C       -2.46918800      -0.49743900      -0.62560200
O       -1.21392500      -0.17292900      -0.20108400
C       -0.36789500      -0.17464500       0.95694000
H        2.75829700       0.45439600      -0.56693900
H        2.60217100      -0.06629600       1.11044900
H        2.02803100      -1.11081100      -0.19350000
H        0.83209700       1.61551300       0.53859400
H       -0.53138500       1.35324200      -1.47514200
H        0.17731800      -0.25684900      -1.77431000
H       -2.77972100      -1.47384900      -0.19882200
H       -2.85491600       0.21924400       0.12892300
H       -0.83178700       0.34171800       1.80152000
H       -0.10086700      -1.19321900       1.26130700
