16
Extracted from Q-Chem output
C       2.052264      0.260934      0.087376
C       0.546574      0.460506      0.063307
C      -0.181844     -0.226380     -1.067945
C      -2.179633      0.205469     -0.358565
O      -1.231652     -0.898414      0.198673
C      -0.266358     -0.322149      1.094035
H       2.526778      0.734168     -0.774541
H       2.483722      0.707397      0.985293
H       2.315746     -0.799733      0.080745
H       0.291154      1.518090      0.073386
H      -0.504411      0.337511     -1.928650
H       0.219229     -1.207474     -1.333658
H      -2.812965     -0.388404     -1.024145
H      -2.803969      0.506092      0.495058
H      -0.753327      0.258795      1.878659
H       0.290201     -1.148737      1.540643
