15
Extracted from Q-Chem output
C      -1.346564      1.014935     -0.395367
C      -0.203820      0.253424     -0.186700
C       0.032233     -0.167751      1.196476
O       1.320143     -0.826395      1.149926
C       1.505065      0.066952      0.119266
C       0.788550     -0.409805     -1.087916
O       0.778107     -1.765116     -1.379772
H      -1.596480      1.825399      0.278678
H      -1.748330      1.104734     -1.397647
H      -1.999010     -0.062497      0.722129
H      -1.505225     -0.553593      1.342337
H       0.024629      0.587763      1.982800
H       2.165319      0.913189      0.256191
H       0.966059      0.161972     -1.992485
H       0.736756     -2.248171     -0.548351
