13
smiles: [H:7][H:10].[O:1]=[C:2]([C@@:3]1([H:9])[C@:4]2([H:11])[N:5]([H:12])[C@:6]12[H:13])[H:8]
O        2.20968100       0.10475700      -0.95040300
C        1.08721100       0.52081400      -0.87054300
C        0.07717000       0.01300900       0.09052000
C       -1.35358000       0.05493400      -0.37006700
N       -1.93354400       0.00975000       0.99021300
C       -0.92766300       1.01620100       0.58545500
H        2.77223900      -2.17551000       0.29621600
H        0.73468900       1.33769800      -1.53823600
H        0.39697100      -0.78669500       0.75277800
H        2.77382900      -2.82625600       0.65806300
H       -1.84402700       0.07964400      -1.32755700
H       -2.85084300       0.45784900       0.94925800
H       -0.95284600       2.08882500       0.66941700
