12
Extracted from Q-Chem output
C       1.813467     -0.195159     -0.345670
C      -0.566239     -0.890388      0.771065
C      -0.281751      0.611121      0.703294
O      -1.465324      0.809494     -0.097575
C      -0.785894     -0.382331     -0.657016
C       0.551684      0.406646     -0.675411
H       0.267457     -1.562743      0.945499
H       2.583612      0.581099     -0.506573
H      -1.481921     -1.140355      1.301390
H      -0.041758      1.341701      1.472320
H      -1.253603     -0.871671     -1.507926
H       0.488448      1.313464     -1.282099
