12
Extracted from Q-Chem output
O      -1.319901      1.057485      0.261923
C      -0.811488     -0.387788     -0.369264
C       0.239593      0.037748     -1.195869
C       0.561720     -0.725803      0.086124
C       1.264295     -0.012083      1.182089
O       2.012226     -0.543843      1.957502
H      -2.160849      1.298044     -0.153057
H      -1.680064     -1.031571     -0.398123
H       0.462670     -0.328489     -2.186921
H      -0.514114      1.332678     -0.422135
H       0.784496     -1.792103      0.077785
H       1.088279      1.083540      1.219647
