19
Extracted from Q-Chem output
C       2.433812     -0.413362      0.098336
O       1.210953     -1.047811      0.398906
C       0.343953     -0.266828      0.919991
C       0.307175      1.246719     -0.691634
C      -1.081729      1.140465     -0.005499
C      -1.108496     -0.288383      0.578507
C      -1.503887     -1.359457     -0.424749
H       3.086357     -1.142285     -0.374176
H       2.878385      0.041003      0.988962
H       1.474971      0.722031     -0.413047
H       0.684474      0.435802      1.680725
H       0.593030      2.291239     -0.835485
H       0.250205      0.785616     -1.682383
H      -1.923612      1.352214     -0.674449
H      -1.140874      1.857504      0.817068
H      -1.738507     -0.360233      1.469787
H      -2.550750     -1.230376     -0.704854
H      -0.900381     -1.305941     -1.331159
H      -1.385673     -2.360333     -0.007000
