9
Extracted from Q-Chem output
N      -0.908972     -0.458866     -0.164609
C      -0.371401      0.892918     -0.040806
C       1.077672      0.723887      0.199615
C       1.181703     -0.672956      0.182724
N       0.018435     -1.328542     -0.028824
H      -1.853063     -0.766930     -0.330155
H      -0.854872      1.420465      0.787363
H      -0.559397      1.463876     -0.955525
H       2.065085     -1.280076      0.316399
