9
Extracted from Q-Chem output
N      -0.951296     -0.473039     -0.023797
C      -0.464716      0.828704      0.157234
C       0.974401      0.766585      0.336394
C       1.155043     -0.633880      0.070065
N       0.041043     -1.326313     -0.101739
H      -1.890763     -0.787484     -0.192659
H      -1.136955      1.597395      0.516199
H       0.034441      1.207845     -0.826924
H       2.093165     -1.168949      0.052134
