11
Extracted from Q-Chem output
C      -1.776236      0.100546     -0.063066
C      -0.382059      0.636819      0.088815
O      -0.121317      1.788185      0.337705
N       0.611491     -0.329357     -0.085314
C       1.908580     -0.129783     -0.004427
O       2.484676     -1.235065     -0.218868
H      -1.896735     -0.339907     -1.054316
H      -2.496011      0.901691      0.080730
H      -1.948635     -0.691472      0.667829
H       1.220123     -1.506893     -0.314155
H       2.424570      0.802461      0.206788
