16
Extracted from Q-Chem output
C      -0.871876      1.274968     -0.118662
C       0.020839      0.047965      0.009592
C      -0.640078     -1.027583      0.880713
C       0.274170     -0.575685     -1.349454
O      -0.150441     -0.173297     -2.395969
C       1.388479      0.417718      0.596940
H      -1.836472      1.013379     -0.555467
H      -0.414817      2.027578     -0.762313
H      -1.045985      1.719582      0.863683
H       0.915930     -1.485608     -1.317938
H      -0.777161     -0.653093      1.897238
H      -0.025635     -1.929771      0.937949
H      -1.619646     -1.308638      0.488384
H       1.266672      0.807569      1.609668
H       2.048374     -0.451868      0.652150
H       1.883783      1.183930     -0.003000
