18
smiles: [C:1]([C:2]1([C:3]([H:10])([H:11])[H:12])[C:4]([H:14])([H:15])[C:5]1([H:16])[H:17])([H:7])([H:8])[H:9].[O:6]([H:13])[H:18]
C       -1.74071000       0.86433500      -0.65731000
C       -0.63179600      -0.13428300      -0.42598100
C       -0.88771700      -1.50161100      -1.01357000
C        0.12552000      -0.05509400       0.86630900
C        0.77935300       0.37365300      -0.42001100
O        3.26136400       0.52595500       1.83513500
H       -1.90682600       1.02334300      -1.72636000
H       -1.50543400       1.83134800      -0.20844800
H       -2.67979800       0.51186000      -0.22207900
H       -1.01494600      -1.44297400      -2.09804600
H       -0.06038700      -2.18415900      -0.80996100
H       -1.79597600      -1.94271500      -0.59391300
H        2.47823400       0.39119200       1.30009300
H       -0.15096400       0.71515300       1.57557300
H        0.46117300      -0.97934900       1.32008800
H        1.55300800      -0.26280900      -0.83140500
H        0.94284100       1.43255300      -0.57801400
H        3.01172700       1.17586600       2.49323500
