10
Extracted from Q-Chem output
O      -0.783384      1.856902      0.217681
C      -0.150298      0.705165      0.068406
C      -0.866392     -0.606479      0.033813
N       0.218226     -1.553439     -0.141189
C       1.267622     -0.827709     -0.183355
N       1.116880      0.570061     -0.060626
H      -1.417969     -0.797464      0.957841
H      -1.581501     -0.663409     -0.790737
H       2.261818     -1.240710     -0.308219
H      -0.123837      2.561418      0.211524
