12
Extracted from Q-Chem output
N       1.752638     -0.481619     -0.458580
C       1.090791     -0.083138      0.612471
N       0.318750     -1.051110      1.190180
C      -0.810259     -1.028816      0.556573
C      -0.973580     -0.020938     -0.471049
C      -0.453237      1.236385      0.036161
N       0.674893      1.226865      0.679562
H       2.184998      0.326452     -0.902614
H       0.484093     -0.441360     -0.976837
H      -1.561826     -1.781029      0.774353
H      -1.855762     -0.024238     -1.095763
H      -0.955701      2.183800     -0.129512
