11
Extracted from Q-Chem output
N      -1.765245     -0.414435     -0.118512
C      -0.455687     -0.174133     -0.028195
C       0.233599      1.081615      0.053142
O       1.291532      0.943148      1.063557
C       1.658042      0.268341     -0.042778
O       2.676698      0.183789     -0.653765
N       0.529370     -1.043871     -0.063032
H      -2.106087     -1.306443     -0.427996
H      -2.423537      0.333094     -0.004594
H      -0.112550      2.083002     -0.145503
H       0.478571     -1.959279      0.366066
