15
Extracted from Q-Chem output
C       2.024722     -0.083851      0.104995
C       0.614099      0.336918     -0.265727
N      -0.244932      0.463257      0.804954
C      -1.358081     -1.400955     -0.358940
C      -1.283720      1.366724      0.649218
O      -1.485913      2.086051     -0.307262
H       2.606352     -0.331867     -0.783884
H       2.007330     -0.950578      0.767678
H       2.527880      0.728054      0.631682
H       0.175710     -0.561607     -0.919297
H       0.553410      1.151629     -0.996056
H      -0.566567     -1.586004      0.337808
H      -1.595380     -0.444786     -0.782987
H      -2.075049     -2.201528     -0.536338
H      -1.941276      1.391879      1.532854
