18
smiles: [C:1]([C:2]([C:3]([O:4][H:17])([H:12])[H:13])([H:10])[H:11])([H:7])([H:8])[H:9].[C:5](=[C:6]([H:16])[H:18])([H:14])[H:15]
C        3.07911300      -0.09510800      -0.11114200
C        1.87127700      -1.02093700      -0.05953500
C        0.56339500      -0.25819100      -0.05790200
O       -0.50015200      -1.19159600      -0.00374500
C       -2.95187000       1.14576400       0.39603400
C       -3.21967800       0.69872200      -0.81872200
H        4.01043100      -0.66284500      -0.11084100
H        3.10237500       0.57704200       0.75022000
H        3.06955600       0.52153100      -1.01342400
H        1.90799400      -1.64540800       0.83707300
H        1.87502600      -1.70002600      -0.91623100
H        0.53114900       0.41848700       0.80744300
H        0.49432900       0.35907600      -0.96447900
H       -2.22759900       1.93441300       0.56539400
H       -3.44386400       0.74067000       1.27292500
H       -3.94418600      -0.08967700      -0.98825300
H       -1.33125000      -0.71582100      -0.00518900
H       -2.72791300       1.10413400      -1.69560300
