18
Extracted from Q-Chem output
C       2.757137     -0.594015      0.387068
C       1.521190     -0.670504     -0.499232
C       0.480009      0.368148     -0.122037
O      -0.648729      0.284051     -0.965894
C      -2.169379      1.084493     -0.358276
C      -2.833715     -0.129142     -0.065413
H       3.492478     -1.348374      0.104542
H       2.504084     -0.757355      1.437595
H       3.240320      0.383254      0.311127
H       1.064828     -1.662108     -0.428570
H       1.792146     -0.525294     -1.548095
H       0.176332      0.225189      0.928654
H       0.905826      1.373916     -0.207338
H      -2.393395      1.636993     -1.262888
H      -1.741577      1.684947      0.438798
H      -2.954129     -0.408425      0.974579
H      -1.519951     -0.471568     -0.579012
H      -3.613439     -0.462631     -0.739184
