16
Extracted from Q-Chem output
C      -0.950160     -1.098504      0.033661
C      -1.613174      0.120535     -0.006216
C      -0.428271      1.643696      0.096489
O       0.518687      1.619681     -0.731227
C       1.831660      0.011702     -0.327887
C       1.265535     -1.127564      0.169888
H      -0.834892     -1.658077     -0.881862
H      -0.949243     -1.685883      0.941174
H      -2.052900      0.390097     -0.959182
H      -2.202581      0.385422      0.865243
H      -0.189616      1.590820      1.176509
H      -1.277153      2.293797     -0.139846
H       2.264880      0.743629      0.336356
H       2.120113      0.082870     -1.366681
H       1.285897     -1.296670      1.239061
H       1.221767     -2.012708     -0.448642
