15
Extracted from Q-Chem output
C      -2.045501     -0.402454     -0.318638
C      -0.750936      0.210565      0.060372
N      -0.574934      1.492353      0.679586
C       0.892275      1.201911      0.709869
C       0.539292     -0.140672      0.128335
N       1.256713     -1.332749      0.038769
O       2.232253     -1.245472     -1.001643
H      -2.586741      0.235800     -1.021780
H      -2.682843     -0.540171      0.557926
H      -1.893870     -1.372650     -0.793295
H       0.640745     -2.089388     -0.234927
H      -0.831380      2.279065      0.092546
H       1.292248      1.192346      1.725010
H       1.484882      1.862653      0.074926
H       3.050415     -1.468793     -0.552258
