11
Extracted from Q-Chem output
C      -1.430291     -0.445672      0.055111
C      -0.023700      0.036649      0.008021
N       1.047015     -0.768377     -0.161682
N       2.192559     -0.082328     -0.170183
N       1.892527      1.158840     -0.009636
C       0.544276      1.278146      0.104232
H      -2.100930      0.388333      0.253877
H      -1.730399     -0.898245     -0.892226
H      -1.574227     -1.186324      0.844291
H       1.072632     -1.767128     -0.273954
H       0.068607      2.234665      0.244959
