11
Extracted from Q-Chem output
C      -1.528921     -0.413035     -0.010436
C      -0.079970     -0.073913     -0.086116
N       0.876928     -1.008085     -0.108394
N       2.114991     -0.298414     -0.129003
N       1.875714      0.986065     -0.108993
C       0.556584      1.157133     -0.153226
H      -1.899992     -0.306259      1.010873
H      -2.117765      0.245697     -0.648740
H      -1.693217     -1.442229     -0.325060
H       1.731589     -1.041155      0.786782
H       0.122130      2.142753     -0.224878
