14
Extracted from Q-Chem output
O       0.848396     -1.238265      1.224470
C       1.093701     -0.893423     -0.095556
C       0.009948     -0.997757     -1.111349
C      -1.397285      0.969212      0.863556
C      -0.293575      1.267408      0.185787
C       0.491030      0.369360     -0.686543
H       0.347197     -0.527593      1.641967
H       2.107021     -1.137309     -0.392133
H       0.251794     -1.322117     -2.114935
H      -0.956240     -1.324405     -0.747722
H      -1.891148      0.007194      0.780420
H      -1.865266      1.700627      1.510099
H       0.128977      2.261054      0.309403
H       1.127206      0.887971     -1.393033
