14
Extracted from Q-Chem output
O       1.496827     -1.369783      0.951805
C       0.976571     -0.826334     -0.247988
C      -0.367976     -1.218700     -0.601188
C      -1.515137      0.973692      0.282191
C      -0.210738      1.357864      0.285175
C       0.847050      0.656865     -0.308995
H       1.222426     -0.794975      1.670029
H       1.662070     -1.109670     -1.053354
H      -0.627090     -1.364449     -1.641502
H      -1.060131     -1.569628      0.150512
H      -1.921011      0.434397     -0.559379
H      -2.224677      1.364399      1.004544
H       0.055140      2.281078      0.803668
H       1.668433      1.207201     -0.761084
