11
Extracted from Q-Chem output
C      -1.599070     -0.070300      0.249996
C      -0.332632     -0.679332     -0.285077
O      -0.297342     -1.627152     -1.022608
C       1.165903      0.658418     -0.383356
O       0.845899      1.546589     -1.075986
N       2.017911      0.062670      0.384681
H      -2.468406     -0.565941     -0.180228
H      -1.613935     -0.175975      1.337639
H      -1.626136      0.996874      0.025252
H       0.911930     -0.608814      0.427056
H       2.945380      0.461123      0.523616
