12
Extracted from Q-Chem output
O      -2.684058      0.887591     -0.199408
C      -1.755329     -0.102484      0.114233
C      -0.345979      0.207678     -0.303448
N       0.213168      1.159700     -0.839969
N       2.570288      0.498272     -0.365402
C       1.930252     -0.563205     -0.069685
N       0.625964     -0.794715     -0.260872
H      -2.754140      0.970453     -1.152761
H      -1.988604     -1.082735     -0.318790
H      -1.743114     -0.216380      1.200455
H       3.533976      0.468873     -0.042154
H       2.409548     -1.452257      0.356025
