10
Extracted from Q-Chem output
N       2.402542      0.676113     -0.522088
C       2.118740     -0.547509     -0.148868
C       0.583885     -0.239979      0.062750
C       1.269135      0.957355      0.252616
O      -1.896915      1.097519      0.018395
C      -1.830908     -0.094532     -0.134108
C      -0.567839     -0.864375     -0.108502
H       1.289409      1.602442      1.125592
H      -2.744626     -0.695643     -0.298861
H      -0.594390     -1.937926     -0.244875
