10
Extracted from Q-Chem output
N       2.822206      0.403134     -0.343362
C       1.983274     -0.412874     -0.147976
C       0.542846     -0.125721     -0.058408
C       1.111475      1.163450      0.043726
O      -1.949028      1.050832      0.183788
C      -1.858198     -0.123665     -0.078355
C      -0.579418     -0.840603     -0.129831
H       1.261926      1.481337      1.077541
H      -2.756608     -0.727782     -0.301771
H      -0.549434     -1.914641     -0.243299
