14
Extracted from Q-Chem output
O       0.260582     -2.645884     -0.052700
C      -0.205725     -1.627150     -0.478229
C      -1.229773      1.093669      0.389268
N      -0.356491      0.795700     -0.739468
C       0.545534     -0.305956     -0.528562
C       1.540070     -0.167944      0.623875
O       1.833251      0.896020      1.092811
H      -1.842679      0.218959      0.621433
H      -1.225670     -1.582107     -0.908977
H      -0.698728      1.393077      1.298946
H      -1.911874      1.894637      0.105488
H       0.164822      1.620514     -0.999122
H       1.180451     -0.408741     -1.422775
H       1.992230     -1.110103      0.983633
