14
Extracted from Q-Chem output
O      -0.632320     -1.697908      0.858282
C      -0.604622     -0.951991     -0.234995
C      -1.206221      0.774439      0.088886
N      -0.029812      1.112785     -0.703948
C       0.655413     -0.164578     -0.647601
C       1.724791     -0.265942      0.422989
O       2.058228      0.673041      1.092116
H      -1.141611     -0.449554      0.823557
H      -1.240081     -1.238003     -1.084845
H      -1.199583      1.170678      1.117021
H      -2.166222      0.972207     -0.383682
H       0.523394      1.854555     -0.293067
H       1.087373     -0.497506     -1.599227
H       2.194146     -1.258504      0.539914
