14
Extracted from Q-Chem output
O      -0.749555      1.365949     -0.298408
C      -0.464183      0.281230     -1.070773
C       0.892310     -0.345670     -0.877727
C       1.189194     -0.865434      0.496211
N       0.780547     -0.408741      1.538711
C      -1.338061     -0.142294     -1.973765
C       0.401949     -0.020946      2.693697
H      -0.217689      1.361071      0.500827
H       1.034905     -1.142692     -1.604251
H       1.674865      0.396933     -1.079414
H      -2.296154      0.346896     -2.085282
H      -1.098430     -0.973124     -2.620767
H      -0.488955     -0.451047      3.129722
H       1.002017      0.698643      3.234122
