14
Extracted from Q-Chem output
O      -0.372851      1.654374     -0.378977
C      -0.321053      0.272083     -0.329414
C       1.068797     -0.304996     -0.811890
C       1.980795     -0.320918      0.417360
N       1.289621     -0.197506      1.419194
C      -1.445607     -0.354859     -0.789890
C      -0.085139     -0.126867      1.477701
H       0.455271      2.011032     -0.048078
H       0.976761     -1.336359     -1.159131
H       1.428067      0.296285     -1.648028
H      -2.325019      0.205407     -1.081707
H      -1.475107     -1.434116     -0.838623
H      -0.560555     -1.068594      1.747245
H      -0.511360      0.727703      1.999859
