17
smiles: [C:1]1([H:8])([H:9])[C:2]([H:10])=[C:3]1[C:4]([C:5]1([H:14])[C:6]([H:16])=[C:7]1[H:17])([H:12])[H:13].[H:11][H:15]
C       -2.06260000      -0.52579600       0.01899600
C       -1.72302900       0.55744500      -0.96191100
C       -0.76609300      -0.25896900      -0.69304900
C        0.61616400      -0.74752400      -0.86245600
C        1.45120600      -0.67106300       0.41216300
C        1.30161800       0.44660700       1.39665400
C        0.84455500      -0.69424800       1.77931600
H       -2.68645200      -1.36351300      -0.29545800
H       -2.15597700      -0.28639000       1.07858100
H       -2.09613800       1.41282200      -1.49658900
H        0.98018400       3.06141800      -1.05904200
H        0.57484300      -1.79126400      -1.19368600
H        1.11028100      -0.18067600      -1.65685700
H        2.43955800      -1.11474900       0.27868000
H        0.48393900       2.53385100      -0.88646600
H        1.46659800       1.49143100       1.59239100
H        0.34814800      -1.29133700       2.52375300
