16
smiles: [C:1]([C@@:2]([C:3][H:12])([N:5]([C:6](=[O:7])[H:16])[H:15])[H:11])([H:8])([H:9])[H:10].[O:4]([H:13])[H:14]
C       -0.90658200       1.37080600       0.42144900
C       -0.32113200       0.04145500       0.07232600
C       -1.50328000       0.55757400      -0.68756300
O       -0.40638500      -1.98443300       0.80095500
N        0.94008100       0.00271400      -0.59884400
C        2.11047700       0.28963600       0.02436200
O        2.21685100       0.66814200       1.16516900
H       -0.32606200       2.24237600       0.15313700
H       -1.44107900       1.44845700       1.35782900
H       -1.33258800       0.89559100      -1.70199200
H       -0.48941300      -0.76677900       0.77563800
H       -2.45681100       0.07267600      -0.52845300
H       -0.53629500      -2.78639000       0.29320400
H        0.53682000      -1.81839100       0.77785300
H        0.98742500      -0.40700600      -1.51550500
H        2.98229500       0.14748800      -0.64109700
