16
Extracted from Q-Chem output
C      -1.134768      1.559788     -0.255711
C      -0.301560      0.368782      0.206162
C      -1.069424     -0.881486     -0.097470
O      -0.418789     -2.126949      0.852299
N       1.007864      0.444499     -0.459892
C       2.056413     -0.314608     -0.142945
O       2.061494     -1.194728      0.709113
H      -0.594835      2.495614     -0.104568
H      -2.065526      1.608912      0.307321
H      -1.386325      1.461596     -1.314532
H      -0.102726      0.466523      1.282555
H      -2.055144     -0.824486      0.363294
H      -0.564735     -2.193608     -0.205971
H       0.535978     -1.876487      0.951812
H       1.108683      1.070975     -1.239886
H       2.963549     -0.080620     -0.720261
