13
smiles: [C:3]([C:4]([H:8])([H:9])[H:10])(=[C:5]([H:11])[H:12])[C:6](=[O:7])[H:13].[O+:1]#[C-:2]
O        2.41063200      -0.88285400      -2.44298200
C        2.33271300      -0.22069100      -1.53880300
C       -0.53522900       0.02051700       0.26338300
C        0.18998500       0.02568400       1.57556400
C       -1.19506400      -1.01923800      -0.23363000
C       -0.49674200       1.28870700      -0.52407200
O       -1.00432100       1.44879400      -1.60184100
H        1.25250500       0.24130900       1.43427800
H       -0.20725900       0.79598400       2.24192200
H        0.10401300      -0.93627200       2.07918200
H       -1.69193500      -0.93942400      -1.19313000
H       -1.25442100      -1.96298200       0.29547200
H        0.05336900       2.12232700      -0.03794600
