13
smiles: [C:4](=[C:5]([O:6][H:13])[H:11])([H:9])[H:10].[N:1]([C:2](=[O:3])[H:12])([H:7])[H:8]
N       -1.00786500      -0.61542100      -1.67772200
C       -0.76182200       0.26856100      -2.67288300
O       -1.52322200       0.52074700      -3.57311600
C       -0.20073100       0.82776800       1.75074600
C        0.66445200      -0.17166000       1.72281300
O        1.05735400      -0.76391300       0.56415000
H       -1.88484000      -1.10643800      -1.66319100
H       -0.33911500      -0.77958600      -0.94962000
H       -0.48338600       1.26533300       2.69670000
H       -0.63684000       1.22024300       0.84133900
H        1.10697400      -0.57200500       2.63134700
H        0.22975000       0.74833000      -2.57987000
H        1.68483000      -1.46151400       0.75211000
