15
Extracted from Q-Chem output
C      -1.703185      0.803775     -0.268034
N      -0.552742      0.156372     -0.386920
C      -0.210022     -1.130076     -0.518488
C       0.423765     -0.347034      0.560344
C       1.797684      0.286828      0.522929
O       2.285331      0.500042     -0.776551
H      -2.369841      0.793570     -1.121507
H      -2.316054     -0.875068      0.389472
H      -1.735647      1.650730      0.405397
H      -1.740866     -1.476932      0.178587
H       0.103579     -1.707232     -1.372771
H       0.044322     -0.535296      1.569973
H       2.502405     -0.384348      1.017903
H       1.777326      1.223129      1.098785
H       1.619164      0.980728     -1.274220
