16
smiles: [C:1]1([H:7])([H:8])[C:2]([H:10])([H:11])[C@:3]2([H:12])[C:4]([H:13])([H:14])[C@:5]12[H:15].[O:6]([H:9])[H:16]
C       -1.08593300       0.21583300       0.15998000
C       -1.05822200      -1.31687200       0.42284900
C        0.41791000      -1.20881500       0.79402700
C        1.18794800      -0.61838900      -0.34257100
C        0.39054500       0.28905600       0.53682200
O        0.84359500       2.43866500      -1.85254000
H       -1.73328800       0.73917600       0.86268300
H       -1.33401000       0.54124600      -0.85304300
H        1.03251500       1.65822600      -1.33012300
H       -1.69175900      -1.59717300       1.26354300
H       -1.28873900      -1.97050200      -0.42175100
H        0.90962500      -1.75010000       1.59108700
H        2.26121400      -0.57454400      -0.20474500
H        0.87334100      -0.79985700      -1.36650500
H        0.85821000       1.08249000       1.10424100
H        0.13338000       2.88743600      -1.39216000
