19
Extracted from Q-Chem output
C       3.491523      0.035458      0.267554
C       2.209152     -0.324619     -0.445124
O       1.128165     -0.080408      0.424989
C      -0.110316     -0.379308     -0.141629
C      -1.240951     -0.288540      0.761156
C      -2.521018     -0.357661      0.023183
C      -3.052838      1.092313      0.027014
H       4.350634     -0.148626     -0.379713
H       3.488013      1.088924      0.549989
H       3.602498     -0.561089      1.173567
H       2.218005     -1.383937     -0.744313
H       2.097269      0.269775     -1.364667
H      -0.256900      0.164756     -1.096073
H      -0.178145     -1.460816     -0.416588
H      -3.170235      1.461413      1.045183
H      -2.462056     -0.715496     -1.017308
H      -3.235814     -0.974437      0.572274
H      -2.378166      1.765822     -0.504264
H      -4.019708      1.120027     -0.475567
