12
Extracted from Q-Chem output
C      -1.148159      0.735038     -0.410952
C       0.171358      0.147928      0.083167
N       0.574236     -1.023533     -0.714422
C       0.553545     -2.280351     -0.379936
C       1.239275      1.157968      0.054826
N       2.063123      1.953970      0.008380
H      -1.065227      1.046383     -1.453057
H      -1.929793     -0.019612     -0.328611
H      -1.426788      1.603896      0.184847
H       0.068489     -0.202371      1.111956
H       0.874324     -0.790196     -1.654540
H       0.204628     -2.324142      0.671636
