16
Extracted from Q-Chem output
C       1.851557      0.536011     -0.041064
N       0.787068     -0.152240     -0.411623
C       0.085946     -0.979220      0.505717
C      -1.215588     -0.247654      0.841442
C      -1.211037      1.008126     -0.028219
C      -0.512341      0.118631     -1.094226
C      -1.105203     -1.119792     -0.389392
H       2.427974      1.023862     -0.821687
H       2.265899     -1.017714      0.949180
H       1.981819      0.893041      0.973238
H       1.459308     -1.374663      1.112826
H      -1.802026     -0.429172      1.730694
H      -0.636692      1.883305      0.297535
H      -2.217983      1.309887     -0.320857
H      -0.479024      0.369116     -2.152211
H      -1.653762     -1.981621     -0.733684
