14
Extracted from Q-Chem output
C      -1.893198     -0.061348      0.035871
C      -0.430731     -0.343532      0.020604
N       0.200697     -1.126876      1.073110
C       0.760587      0.180118      0.947403
C       1.775098      0.305792     -0.189182
C       0.538122      0.117089     -0.933600
O       0.416294      0.920345     -1.920301
H      -2.116530      0.829444     -0.551446
H      -2.237599      0.078199      1.060156
H      -2.443566     -0.901705     -0.390748
H       0.834274     -1.826271      0.700231
H       0.513728      0.934237      1.683629
H       2.585925     -0.417513     -0.173330
H       1.469074      1.262811     -1.409868
