15
Extracted from Q-Chem output
O       1.453036      0.460044     -0.542519
C       1.446768     -0.843099      0.332622
C       0.068050     -0.981894      0.725979
C      -0.362650      1.282387     -0.201411
C      -1.591725      0.419234     -0.303084
C      -0.808815     -0.893146     -0.402455
O      -0.653280     -1.447004     -1.483288
H       1.376117      0.147526     -1.453452
H       2.147304     -0.640719      1.137696
H       1.848662     -1.590047     -0.350502
H      -0.254358     -0.614031      1.691742
H      -0.097597      1.701274      0.757406
H      -0.095427      1.900686     -1.049900
H      -2.210063      0.620129     -1.176321
H      -2.160871      0.483867      0.625655
