18
smiles: [C:1]([H:7])([H:8])([H:9])[H:18].[C:2](=[C:3]([C:4]([H:13])([H:14])[H:15])[H:12])([H:10])[H:11].[C:5](=[O:6])([H:16])[H:17]
C       -0.74136400      -2.34040200       1.01322600
C       -1.14070000       1.50679100      -0.14445000
C        0.10021500       1.94085000       0.01194100
C        1.10817200       1.34469600       0.94213200
C        0.60559300      -0.50016100      -2.03999600
O        1.56310500      -0.94829200      -1.48107500
H       -0.74145100      -3.41067400       1.21438300
H       -1.62210300      -2.08098000       0.42769800
H       -0.75728200      -1.79400000       1.95497700
H       -1.82554200       1.98472400      -0.83430700
H       -1.51825600       0.65543600       0.41292400
H        0.43197000       2.79787400      -0.56994300
H        0.69508900       0.49092800       1.48099100
H        1.99399100       1.00995200       0.39610000
H        1.44637300       2.08244000       1.67441100
H        0.68261600       0.35412200      -2.73985700
H       -0.40934100      -0.91529700      -1.88791600
H        0.15552000      -2.07585200       0.45522100
