18
Extracted from Q-Chem output
C      -1.016555     -1.708458      0.874905
C      -1.071731      0.521171      0.201461
C       0.088740      1.021777     -0.408369
C       1.190962      1.494852      0.518654
C       0.774161     -0.248081     -1.455058
O       0.870625     -1.383712     -0.850807
H      -0.791371     -2.756094      0.646524
H      -2.089188     -1.576198      0.773333
H      -0.697801     -1.497250      1.892528
H      -1.977496      0.412055     -0.381988
H      -1.199857      0.563835      1.272295
H      -0.148926      1.694932     -1.231248
H       1.598287      0.645214      1.071021
H       2.009805      1.945593     -0.043167
H       0.831330      2.232736      1.238488
H       1.723686      0.270770     -1.649721
H       0.110840     -0.210247     -2.337875
H      -0.181103     -1.366188      0.019360
