16
Extracted from Q-Chem output
C      -0.000255      1.724465      0.049763
C       0.720322      0.409441      0.101641
C       1.789045      0.217591      0.865178
O      -1.611792     -1.215019      0.850015
C       0.166543     -0.695485     -0.759933
C      -1.308284     -0.995539     -0.511892
H      -1.000328      1.630477      0.480526
H       0.536606      2.493830      0.603788
H      -0.121593      2.063887     -0.983038
H       2.198179      1.012474      1.478060
H       2.297369     -0.739817      0.898115
H      -0.883028     -1.686119      1.259147
H       0.754193     -1.606174     -0.605458
H       0.279017     -0.428904     -1.817442
H      -1.929870     -0.154109     -0.827077
H      -1.603087     -1.860554     -1.119615
