16
Extracted from Q-Chem output
C       0.192639      1.882190     -0.196658
C       0.597142      0.438711     -0.189736
C       0.906362     -0.262862      1.005463
O      -0.466026     -1.003665      1.382367
C       0.014953     -0.467477     -1.248303
C      -1.150143     -0.887957     -0.455865
H      -0.897071      2.041966     -0.239767
H       0.546714      2.387999      0.703859
H       0.612101      2.417565     -1.056770
H       1.188256      0.358473      1.852910
H       1.572460     -1.128348      0.908055
H      -0.318782     -1.891471      1.757215
H       0.656810     -1.300529     -1.543129
H      -0.272137      0.095668     -2.139210
H      -1.922818     -0.151911     -0.284209
H      -1.469555     -1.920185     -0.357314
