14
Extracted from Q-Chem output
C      -0.450553      1.389545      0.210898
N      -0.495745      0.066980     -0.382914
C      -1.012037     -0.935333      0.529722
C       0.719299     -0.312725     -1.020023
C       2.677864     -0.553282      0.691632
N       1.841401     -0.458496     -0.112293
H      -1.454298      1.674601      0.527971
H      -0.110380      2.116091     -0.528835
H       0.215471      1.443401      1.084792
H      -0.392559     -1.052099      1.431212
H      -1.070661     -1.900290      0.023613
H      -2.018817     -0.653126      0.839666
H       1.002088      0.438314     -1.758173
H       0.592876     -1.271359     -1.524120
