11
Extracted from Q-Chem output
O       1.970492     -1.284492      0.010173
C       0.815039     -0.612683     -0.004460
N      -0.328766     -1.159526     -0.150260
C      -1.291563     -0.076916     -0.106422
C      -0.500028      1.179899      0.091049
C       0.788719      0.844020      0.151533
H       1.755502     -2.217133     -0.106733
H      -2.009091     -0.239472      0.704928
H      -1.872543     -0.049574     -1.034518
H      -0.924385      2.171502      0.166577
H       1.653474      1.476123      0.285496
