11
Extracted from Q-Chem output
O       2.005209     -1.347659      0.005652
C       1.043596     -0.510006      0.025058
N      -0.093992     -1.133136     -0.130716
C      -1.182205     -0.185225     -0.111929
C      -0.466293      1.127425      0.088308
C       0.854149      0.933809      0.169504
H       0.849080     -2.045743     -0.160091
H      -1.889938     -0.381179      0.700297
H      -1.750901     -0.188807     -1.047632
H      -0.981889      2.076804      0.151647
H       1.632784      1.665952      0.312571
