16
smiles: [C:1](=[C:2]([H:10])[H:11])([H:8])[H:9].[C:3]([C:4]([H:12])([H:13])[H:14])([C:5]([H:7])([H:15])[H:16])=[O:6]
C        2.46915200       0.39512500       0.05695700
C        1.79865400       0.44458500      -1.08112100
C       -1.40028200      -0.08355000      -0.30941300
C       -1.10422600      -1.51282600       0.07872500
C       -1.40587900       0.93087700       0.80941800
O       -1.62119500       0.23042800      -1.45178000
H       -0.44517400       0.92516100       1.32945200
H        2.61126600       1.27624100       0.67225300
H        2.90302500      -0.52869200       0.42244900
H        1.65652900      -0.43651600      -1.69643500
H        1.36478600       1.36840500      -1.44661200
H       -1.12798100      -2.15016400      -0.80209600
H       -0.12329700      -1.57654800       0.55561600
H       -1.83789000      -1.86236400       0.80901100
H       -1.60414200       1.92362100       0.41191600
H       -2.16948700       0.67034600       1.54619100
