16
smiles: [C:1]([C:2]1([H:10])[C:3]([H:11])([H:12])[C:4](=[O:5])[C:6]1([H:15])[H:16])([H:7])([H:8])[H:9].[H:13][H:14]
C        2.04834100       0.08231900      -0.17802300
C        0.58511600       0.08439600       0.21209700
C       -0.39050100       0.89250300      -0.68700400
C       -1.29395800      -0.33445400      -0.71512200
O       -2.42547000      -0.51938200      -1.04579900
C       -0.22833500      -1.20948300      -0.06569500
H        2.48832700       1.07586900      -0.06875100
H        2.17189600      -0.22352300      -1.22074400
H        2.62338800      -0.60807100       0.44259400
H        0.47285100       0.38415500       1.25584800
H        0.01864000       1.10215500      -1.67937600
H       -0.83255200       1.80535700      -0.28805900
H       -2.21375900       0.62964200       2.35829200
H       -2.68976300       0.46242100       1.81073900
H       -0.55452400      -1.81308400       0.78121600
H        0.24787600      -1.86270100      -0.80223900
