16
Extracted from Q-Chem output
C       2.022277      0.048162     -0.280715
C       0.644787      0.149809      0.337834
C      -0.435545      0.980362     -0.396144
C      -1.447044     -0.123689     -0.071433
O      -2.590509     -0.385061     -0.650616
C      -0.293245     -1.078452      0.250462
H       2.528444      1.015911     -0.278059
H       1.960684     -0.295090     -1.316558
H       2.649549     -0.656716      0.269229
H       0.725708      0.481980      1.375815
H      -0.295010      0.956376     -1.481285
H      -0.646613      2.002125     -0.086181
H      -1.796263      0.273714      1.272533
H      -2.518046      0.031399      0.659163
H      -0.387879     -1.758707      1.094525
H      -0.114929     -1.658679     -0.660405
