12
Extracted from Q-Chem output
O       1.357875     -0.935524     -1.677486
C      -0.207569     -0.329914      1.347462
C      -0.801566      0.832834      0.600959
C      -0.204691      0.716495     -0.804685
C       0.701408     -0.511327     -0.761569
C       0.614384     -1.068465      0.607297
H      -0.445730     -0.521938      2.387341
H      -0.544761      1.775215      1.091301
H      -1.892931      0.772801      0.602023
H      -0.957499      0.569659     -1.580224
H       0.389199      1.583989     -1.094811
H       1.159016     -1.949886      0.915414
