12
Extracted from Q-Chem output
O       0.031977     -1.434030     -0.448657
C      -0.285258     -0.502546      1.072124
C      -0.827920      0.738290      0.481061
C      -0.023576      0.873863     -0.852856
C       0.888143     -0.331319     -0.897748
C       0.982416     -0.859267      0.494962
H      -0.728244     -1.009349      1.925631
H      -0.564255      1.571465      1.140450
H      -1.915804      0.718580      0.393341
H      -0.693445      0.879826     -1.713940
H       0.563250      1.791963     -0.878425
H       1.739852     -1.503535      0.917083
