8
Extracted from Q-Chem output
O      -2.443137      0.388216      0.201405
C      -1.446135     -0.074338     -0.271110
N      -0.175744      0.196438      0.230283
C       0.915435     -0.345981     -0.332023
O       1.968527      0.084608      0.347591
H      -1.409746     -0.751267     -1.136463
H      -0.125457      0.818880      1.033873
H       2.750785     -0.301991     -0.052312
