14
Extracted from Q-Chem output
C      -1.496834      0.225691     -0.585927
C      -0.714144     -0.604799      0.421689
C       0.719879     -0.112323      0.628650
O       0.747969      1.191101      1.130823
C       1.513337     -0.203741     -0.650824
O       2.095240      0.739091     -1.117025
H      -1.514966      1.273779     -0.286291
H      -2.527160     -0.124137     -0.659641
H      -1.057334      0.171266     -1.585439
H      -0.680731     -1.655964      0.116766
H      -1.208413     -0.578667      1.395016
H       1.217576     -0.798613      1.334041
H       1.537740     -1.195532     -1.142525
H       1.323061      1.703617      0.547262
