9
smiles: [N:1]([C:2]#[C:3][H:9])([H:7])[H:8].[O:4]=[N+:5]=[N-:6]
N        1.80265600      -0.10487900       0.21363700
C        0.79750500       0.78070400       0.37585000
C       -0.08126800       1.58993800       0.47498100
O       -2.79978300      -0.43196700      -0.20687600
N       -1.87753600      -1.16134600      -0.22942900
N       -1.00356400      -1.85288100      -0.25086100
H        1.50865900      -1.05520900       0.05546400
H        2.53992000      -0.03739600       0.89651700
H       -0.86078800       2.30625900       0.56826900
