9
Extracted from Q-Chem output
N       1.644068     -0.242270      0.206783
C       0.390266      0.260778      0.259428
C      -0.463044      1.144515      0.385949
O      -2.255095      0.116979     -0.036296
N      -1.726417     -0.950321     -0.229374
N      -0.664131     -1.393845     -0.226579
H       1.725821     -1.242842      0.256951
H       2.346617      0.265278      0.715593
H      -0.988562      2.056067      0.541957
