13
smiles: [C:1]([C:3]([C:2](=[O:6])[H:10])([H:11])[H:12])([H:7])([H:8])[H:9].[N:4]#[C:5][H:13]
C        1.92566500      -0.25349400       0.38401500
C        0.09492600       0.41504400      -1.19530200
C        0.56880200      -0.61978200      -0.21301700
N       -3.97511400       0.30540700       1.74588600
C       -3.22525500       0.53796000       0.91423100
O       -0.97570900       0.95543100      -1.16493100
H        2.67608100      -0.10373000      -0.39552600
H        1.86281500       0.66591800       0.96859300
H        2.28399300      -1.04525100       1.04182600
H        0.82831300       0.67072600      -1.99263000
H        0.65278600      -1.56467000      -0.76252300
H       -0.19514700      -0.74767200       0.55479600
H       -2.52415200       0.75457000       0.13783200
