13
Extracted from Q-Chem output
N      -1.892607      0.921419      0.355079
C      -0.644005      0.475486      0.227625
C      -0.295821     -0.885702      0.847651
O       0.291822     -1.552868     -0.784715
N       1.115789     -0.681278      1.064761
C       1.386644     -0.115316     -0.173830
C       0.455232      0.947885     -0.425853
H      -2.194577      1.801818     -0.017284
H      -2.531889      0.366370      0.896232
H      -0.266063     -1.336613     -1.542006
H       1.589759     -1.558868      1.232025
H       2.357931     -0.220963     -0.647153
H       0.590838      1.769088     -1.110335
