15
Extracted from Q-Chem output
C      -1.351930     -0.487169     -0.744781
O      -0.872167     -1.707612     -0.158562
C      -0.011882     -0.969980      0.727474
C       1.402154     -0.889023      0.228286
C       1.939118      0.169392     -0.335100
C       0.292211      1.425014     -0.020198
C      -0.682421      0.353667      0.352154
H      -0.940028     -0.326761     -1.746578
H      -2.442439     -0.463998     -0.786678
H      -0.086659     -1.348817      1.749919
H       2.018637     -1.782187      0.283028
H       1.539073      1.229679     -0.595946
H       0.592622      2.061162      0.810737
H      -0.014589      2.035013     -0.873603
H      -1.392079      0.709343      1.100273
