10
Extracted from Q-Chem output
O      -2.397035      0.894613     -0.560966
C      -1.679467     -0.025885     -0.842155
C      -0.320017     -0.182075     -0.280826
N       0.396352     -1.215241     -0.634428
O       1.576637     -1.096053      0.025076
C       1.554461      0.016116      0.773491
C       0.375936      0.652887      0.631341
H      -1.984429     -0.823290     -1.543028
H       2.445885      0.213867      1.346055
H       0.031677      1.565062      1.085441
