10
Extracted from Q-Chem output
O      -2.160762      0.894199     -1.348178
C      -1.692052     -0.007877     -0.773318
C      -0.061316     -0.114309     -0.580028
N       0.128034     -0.983354     -1.406606
O       2.114792     -1.120479      0.272221
C       1.679652     -0.161380      0.885113
C       0.454631      0.500915      0.542074
H      -2.172203     -0.824864     -0.226286
H       2.251307      0.282065      1.716995
H       0.029730      1.363551      1.024891
