13
Extracted from Q-Chem output
C      -1.219389     -0.766022      0.389011
C      -0.268223     -0.029974     -0.539885
C       0.280640      1.281626      0.012189
O       1.637174      0.950954      0.418983
C       1.978335     -0.216567     -0.121368
N       0.976553     -0.820338     -0.747752
H      -1.449690     -1.756812     -0.003680
H      -2.154091     -0.212960      0.494956
H      -0.776394     -0.882931      1.380937
H      -0.732465      0.105416     -1.517450
H      -0.245864      1.646847      0.893311
H       0.336371      2.072457     -0.736366
H       1.699161     -1.418210      0.139330
