16
Extracted from Q-Chem output
C       2.156622      0.198370     -0.216849
C       0.687917     -0.062478     -0.044908
C       0.275092     -0.653435      1.272924
C      -2.388235      0.456605      0.009010
N      -1.620057     -0.025218     -0.874116
C      -0.115567      0.241200     -1.094588
O       0.026816      0.668609     -2.246621
H       2.741138     -0.716858     -0.069067
H       2.522821      0.930167      0.512827
H       2.367064      0.581707     -1.214198
H       0.981663     -1.439469      1.558137
H      -0.713583     -1.116193      1.262059
H       0.291912      0.077634      2.092119
H      -3.464202      0.348154     -0.075092
H      -1.951985      0.983900      0.848358
H      -2.023043     -0.435905     -1.711814
