15
Extracted from Q-Chem output
C      -1.740520      0.327490      0.342528
C      -0.440902     -0.121962     -0.258764
C       0.803351      0.657874     -0.335070
C       0.176171      1.844883     -0.878780
N      -0.570983      1.879439     -1.809225
N       0.572151     -0.207497      0.809403
C       1.519494     -1.311070      0.858324
H      -1.569974      1.054433      1.145048
H      -2.424942      0.739284     -0.397329
H      -2.210778     -0.551822      0.790468
H      -0.746928      0.492384     -1.715408
H       1.591591      0.348373     -1.014743
H       1.786719     -1.695202     -0.134502
H       1.066391     -2.117861      1.433337
H       2.423408     -0.983236      1.373157
