19
Extracted from Q-Chem output
C       1.545549      0.757054     -0.660678
C       0.919951     -0.466906      0.767122
C      -0.466491     -0.415927      0.248004
C      -0.692768     -1.388065     -0.900638
C      -1.353516     -0.629900      1.363043
C      -0.414594      1.001892     -0.282211
O      -0.450056      1.999185      0.636300
H       1.694002      1.832364     -0.548403
H       1.444875      0.485495     -1.711243
H       2.509468      0.327117     -0.347159
H       1.119589      0.186527      1.610177
H       1.470622     -1.408055      0.778656
H       0.029422     -1.248987     -1.706336
H      -0.599850     -2.411800     -0.534289
H      -1.698857     -1.265369     -1.307394
H      -1.387540      0.091452      2.167504
H      -2.054782     -1.454139      1.383965
H      -0.930532      1.252664     -1.217712
H      -0.759480      2.811044      0.235020
