14
smiles: [C:1]([C:2](=[C:3]([H:11])[H:12])[O:4][H:13])([H:7])([H:8])[H:9].[C:5](=[O:6])([H:10])[H:14]
C       -0.94974700       2.01644900      -0.17839800
C        0.01495000       0.87879800      -0.18842300
C        0.96438700       0.66746700       0.71781300
O       -0.20326600       0.06828400      -1.25977600
C        0.10426700      -2.78974400       0.12070900
O        0.89251500      -2.49738700      -0.72965700
H       -0.86219700       2.58915100      -1.10370300
H       -1.97216600       1.63700400      -0.12383200
H       -0.76808800       2.67527000       0.66793700
H        0.09085500      -3.79368700       0.58699400
H        1.09087900       1.34698400       1.54728800
H        1.63397300      -0.18289100       0.65576600
H        0.42914600      -0.65429900      -1.24502200
H       -0.65441000      -2.07174500       0.48691000
