13
Extracted from Q-Chem output
O       1.380642      1.920198     -0.893038
C       1.596638      0.929977     -0.253437
C       0.852126     -0.366406     -0.458013
O       0.718257     -1.149598      0.743285
C      -0.636809     -1.426736      0.480679
C      -1.325372      0.303510      0.503572
C      -0.654072     -0.369153     -0.632244
H       2.379133      0.897133      0.531900
H       1.373310     -0.945405     -1.228778
H      -1.391131     -0.782603      1.298539
H      -2.391343      0.460340      0.385011
H      -0.782878      1.038350      1.086000
H      -1.155034     -0.462526     -1.584651
