13
Extracted from Q-Chem output
C      -2.059683      0.173348      0.279608
O      -1.447366     -0.303655      1.367363
C      -0.276534      0.081994      0.048519
N       0.340816      1.243070      0.062592
N       1.649620      0.885734     -0.076150
C       1.810537     -0.433908     -0.262070
C       0.578530     -1.027157     -0.219508
H      -2.840685     -0.451566     -0.196170
H      -2.309622      1.243969      0.241982
H      -1.294828      0.109541     -0.730592
H       2.347998      1.602564     -0.061794
H       2.786088     -0.875356     -0.392139
H       0.322644     -2.069233     -0.272433
