9
Extracted from Q-Chem output
N      -1.692589     -0.045666      0.352351
C      -0.514852      0.315266     -0.209926
N       0.487692     -0.632567     -0.443723
N       1.718214     -0.224073      0.041256
N       2.259796      0.833607      0.017449
N      -0.062322      1.352534     -0.729130
H      -1.844728     -1.039825      0.393879
H      -2.497504      0.524673      0.155293
H       2.140531     -1.092130      0.424807
