19
smiles: [C:1]([O:2][C:3]([C:4]([C:5]([H:14])([H:15])[H:16])=[C:6]([H:17])[H:18])([H:11])[H:12])([H:8])([H:9])[H:10].[O:7]([H:13])[H:19]
C        2.52453800       0.41952100      -0.58014800
O        1.28862100       0.53558900       0.07078100
C        0.46561500      -0.57647800      -0.13512700
C       -0.85865500      -0.43151300       0.55648800
C       -1.78659000      -1.59487700       0.36164000
C       -1.17127500       0.63471300       1.27761700
O       -0.44128500       2.04599800      -1.81340100
H        2.39927600       0.32805200      -1.66744700
H        3.09486200       1.32199300      -0.36488900
H        3.08819900      -0.45209500      -0.22148200
H        0.29160400      -0.72842100      -1.21374900
H        0.96117200      -1.49171500       0.23031800
H       -1.30872100       1.93501200      -1.42207800
H       -2.73217200      -1.43555900       0.87852200
H       -1.34285800      -2.51968800       0.74182500
H       -2.00007100      -1.75580400      -0.69906000
H       -2.13499100       0.71029700       1.76769400
H       -0.47438900       1.45292700       1.39869800
H        0.17930900       1.76220900      -1.14112000
