19
Extracted from Q-Chem output
C       2.704782      0.246716     -0.690137
O       1.341486      0.516579     -0.504856
C       0.596078     -0.639044     -0.173681
C      -0.839869     -0.260019      0.081095
C      -1.822513     -1.408262      0.103043
C      -1.073420      0.895606      0.868577
O      -1.455915      1.995448     -0.549152
H       2.864370     -0.475126     -1.501816
H       3.195958      1.183698     -0.950207
H       3.161709     -0.155672      0.223587
H       0.645563     -1.365921     -0.998337
H       1.061837     -1.122863      0.703614
H      -1.207913      0.825226     -0.804173
H      -2.841898     -1.052118      0.263782
H      -1.602433     -2.138893      0.890974
H      -1.816717     -1.950543     -0.845942
H      -2.017963      1.016807      1.384940
H      -0.245513      1.454944      1.290595
H      -0.647810      2.485577     -0.748847
