12
Extracted from Q-Chem output
O      -0.045783      1.110464      0.833023
C       0.523565      0.135142      0.053764
C       1.944672      0.085371      0.057279
C       3.141174      0.048149      0.059464
C      -0.360443     -0.592268     -0.619485
C      -1.712742     -0.005625     -0.321198
N      -1.454629      0.835318      0.857020
H       4.205262      0.015366      0.061096
H      -0.134690     -1.385509     -1.312172
H      -2.484767     -0.738300     -0.079865
H      -2.075741      0.608951     -1.152557
H      -1.547378      0.245119      1.681072
