11
Extracted from Q-Chem output
O      -1.617057     -0.462763     -0.194138
C      -0.962831      0.779575     -0.084399
C       0.538380      0.835000     -0.282237
C       1.194440     -0.723995      0.359321
O       0.967251     -0.325529     -0.967529
H      -1.270207     -0.900003     -0.977707
H      -1.316065      1.488231     -0.851213
H      -1.224856      1.214113      0.881403
H       1.144920      0.353824      0.910173
H       0.446199     -1.397362      0.762173
H       2.237115     -0.974359      0.541881
