14
smiles: [O:1]1[C@@:2]2([H:8])[C:3]([H:9])([H:10])[C@:4]1([H:11])[C:6]2([H:13])[H:14].[O:5]([H:7])[H:12]
O       -0.12333100       0.79463500      -0.53339200
C        0.91749800       0.38253100       0.42114400
C        0.06679300       0.97284000       1.55973100
C       -0.83576800       0.18013100       0.59811900
O       -0.27866500      -0.92606900      -2.76878400
C        0.19226500      -0.96510200       0.58626200
H       -0.23358600      -0.22950200      -2.11260900
H        1.95336600       0.58376200       0.15543000
H       -0.06072500       2.05321700       1.53165900
H        0.21341100       0.57904600       2.56564800
H       -1.92179400       0.13611800       0.54475500
H       -0.38652700      -0.47776100      -3.60867700
H        0.17551300      -1.59395200      -0.30168600
H        0.34847800      -1.52192700       1.51027600
