14
Extracted from Q-Chem output
O       2.228800      0.672894      0.302077
C       0.952670      0.202261      0.635618
C      -0.294770      0.986245      0.183076
C      -0.991131     -0.374527     -0.030405
O      -1.753014     -0.565881     -1.196586
C       0.386473     -1.041687     -0.075527
H       2.272576      0.787854     -0.649551
H       0.963248      0.068561      1.718166
H      -0.119965      1.455442     -0.788857
H      -0.735128      1.712060      0.866582
H      -1.555062     -0.680240      0.857989
H      -2.597581     -0.123873     -1.093136
H       0.727903     -1.078633     -1.113500
H       0.514983     -2.020475      0.384053
