16
Extracted from Q-Chem output
C      -1.153259      1.397606     -0.056454
C      -0.479846      0.212628      0.530549
C      -0.947224     -1.146632      0.158811
O      -0.447043     -2.169879      0.956784
N       1.216856      0.547040     -1.085200
C       2.032067     -0.057753     -0.297329
O       1.639158     -0.501469      0.817715
H      -0.553520      2.296427      0.054161
H      -2.068537      1.537961      0.538067
H      -1.415877      1.257001     -1.101752
H      -0.185762      0.328331      1.564667
H      -2.038663     -1.112344      0.304575
H      -0.778341     -1.310626     -0.911668
H       0.503148     -1.990889      1.035825
H       1.616307      0.888306     -1.951735
H       3.088486     -0.212023     -0.562735
