14
Extracted from Q-Chem output
C      -1.473855      0.958459     -0.218748
C      -0.688313     -0.336069     -0.302879
N       0.246897     -0.465179     -1.426812
C       1.405425     -0.414358     -0.674258
N       2.614049     -0.363533     -1.017930
C       0.564838     -0.408002      0.586115
N       0.863868     -0.409346      1.800092
H      -2.195943      1.027457     -1.034747
H      -0.809004      1.822607     -0.271512
H      -2.029940      1.005196      0.719675
H      -1.348455     -1.203311     -0.202803
H       0.036401     -0.380272      2.394460
H       0.124735     -0.175028     -2.381496
H       3.207296     -0.348609     -0.194007
