14
Extracted from Q-Chem output
C       0.755582      1.807742      0.428922
C       0.474614      0.505245      1.147013
C      -2.177442     -1.235525     -1.674837
C      -1.067955     -1.425109     -1.021298
N      -0.018917     -1.683403     -0.450287
C       0.555620     -0.813205      0.458059
C       1.529295     -0.582253      1.265337
H       1.464705      1.654783     -0.387510
H      -0.160423      2.230259      0.008646
H       1.178498      2.549453      1.111175
H      -0.233819      0.606659      1.972528
H      -3.117576     -1.563700     -1.254294
H      -2.163664     -0.745668     -2.638291
H       2.453451     -0.871012      1.734132
