12
Extracted from Q-Chem output
N       0.324401      1.048599      0.732448
C       0.431197     -0.295230      0.173838
C      -0.685044     -0.503682     -0.823328
O      -2.058166     -0.152876      0.151270
C       1.704945     -0.566592     -0.521375
N       2.704572     -0.757786     -1.050416
H       0.999949      1.207935      1.467555
H       0.467172      1.738466      0.003711
H       0.373534     -0.996440      1.018061
H      -1.888759      0.296166     -0.790443
H      -0.842273     -1.564095     -1.019573
H      -1.650366      0.494929      0.762433
