16
Extracted from Q-Chem output
C       2.167730      0.061721      1.341529
C       1.095546     -0.104293      0.288722
C      -1.228230      0.105366     -1.509086
C      -1.890520     -0.643072     -0.372706
C      -1.155902      0.631551     -0.111391
O       0.005403      0.710231      0.652356
H       2.472409      1.106616      1.412390
H       3.042994     -0.539439      1.089035
H       1.798179     -0.254799      2.317575
H       1.479498      0.194514     -0.695031
H      -1.844714      0.636167     -2.222448
H      -0.348106     -0.352549     -1.939411
H      -1.426090     -1.571763     -0.067271
H      -2.969492     -0.636885     -0.292302
H       0.793883     -1.158557      0.222953
H      -1.767267      1.498102      0.106753
