17
Extracted from Q-Chem output
C      -1.830445     -0.254461      0.262684
C      -1.017652      0.821490     -0.395980
C      -0.073494      1.670499      0.454965
C       0.450608      0.782992     -0.568134
C       0.929867     -1.566862     -0.396283
C       1.987513     -1.041554      0.320280
O       2.259667      0.181389      0.295243
H      -2.769272      0.147182      0.649385
H      -1.273942     -0.705538      1.084270
H      -2.062164     -1.044025     -0.455765
H      -1.520941      1.310787     -1.228458
H       0.031535      2.741696      0.326859
H       0.011769      1.331999      1.481568
H       0.962111      1.103327     -1.460042
H       0.843430     -1.231618     -1.423045
H       0.542215     -2.558278     -0.189508
H       2.634548     -1.687280      0.931099
