11
Extracted from Q-Chem output
O       0.335847     -1.155812      0.865532
C      -1.018783     -0.254317     -0.313155
C      -0.443371      1.009412     -0.675013
C       0.943378      1.033059      0.079933
C       1.259364     -0.042457      0.753959
H       0.744492     -1.957139      0.510087
H      -1.013993     -1.090874     -1.000681
H      -1.728033     -0.326712      0.499652
H      -0.240755      1.118579     -1.738388
H      -1.014620      1.861221     -0.311508
H       2.162409     -0.209813      1.327974
