20
smiles: [C:1]([C:2]([C:3]([C:4][C:5]([H:15])([H:16])[H:17])([H:12])[H:13])([H:10])[H:11])([H:7])([H:8])[H:9].[C:6]([H:14])([H:18])([H:19])[H:20]
C        2.75113700       0.35240300      -0.37345900
C        1.47989300      -0.37152300       0.04889800
C        0.47017200       0.54817700       0.72421300
C       -0.67227400      -0.07464200       1.39323200
C       -1.79570300       0.85521100       1.56684500
C       -1.81664600      -1.34332100      -1.72349100
H        2.53281800       1.16527400      -1.07092100
H        3.44948800      -0.32578500      -0.86631600
H        3.26234000       0.78731900       0.48946200
H        1.00579400      -0.82719700      -0.82505000
H        1.70948200      -1.19117600       0.73297200
H        0.22936200       1.42935000       0.10371800
H        0.92587700       0.97627500       1.64541600
H       -1.56438200      -1.60996700      -0.69827600
H       -2.41607400       0.56135300       0.70083300
H       -2.41214400       0.64397600       2.44097200
H       -1.58886800       1.93124800       1.46618000
H       -2.87853200      -1.51543500      -1.89268500
H       -1.58810400      -0.29202900      -1.89201100
H       -1.23530600      -1.95581600      -2.41103000
