12
Extracted from Q-Chem output
C      -1.500391     -0.881480     -0.225372
C      -0.128976     -0.348231     -0.003740
C       0.109453      1.123202      0.055196
O       1.514181      1.227283      0.277222
C       1.030147     -1.077525      0.167450
C       1.941120     -0.025702      0.326653
H      -1.472096     -1.968372     -0.249607
H      -1.918452     -0.511751     -1.166621
H      -2.180149     -0.559640      0.569530
H      -0.401324      1.622147      0.882404
H      -0.126913      1.648302     -0.873492
H       3.013713     -0.081431      0.496113
