13
Extracted from Q-Chem output
C      -1.471043     -1.307863      0.082772
O      -0.669268      0.815180     -0.384775
C       0.434518      1.330957     -0.006036
N       1.165326      2.273721     -0.430753
N       0.920101      0.558818      1.185107
C       1.234073     -0.672092      0.742545
O       0.543026     -1.664822      0.978915
H      -1.308070     -1.237460     -0.980264
H      -2.102198     -0.559014      0.531423
H      -1.379602     -2.267256      0.562704
H       0.737948      2.671845     -1.263685
H       0.139322      0.487659      1.830264
H       2.101617     -0.725268      0.073217
