14
Extracted from Q-Chem output
C      -0.881581     -0.963630      1.180168
N      -0.392514     -0.091089      0.151413
C      -0.841755      1.263540     -1.377875
C       0.859728      0.082377     -0.132850
O       1.095339      0.909655     -1.063285
N       1.896449     -0.532357      0.513070
H      -0.639221     -2.019775      0.992245
H      -0.504631     -0.693846      2.175507
H      -1.970312     -0.894687      1.218727
H      -0.402441      2.182540     -1.742507
H      -1.000376      0.517468     -2.141897
H      -1.707061      1.439365     -0.755123
H       2.790867     -0.481727      0.061306
H       1.704022     -1.369627      1.032414
