15
smiles: [C-:1]([N+:2]1=[C:7]=[C:5]([N:6]([H:13])[H:14])[C:4]([H:12])=[C:3]1[H:11])([H:9])[H:10].[H:8][H:15]
C        2.09156100       0.08694600       1.10754500
N        0.89492100      -0.06441400       0.68705000
C        0.47494800      -1.28919500       0.02468100
C       -0.80296500      -1.10237200      -0.27260600
C       -1.17295700       0.25135200       0.20209300
N       -2.47889200       0.69982600       0.09446300
C       -0.14221600       0.91439200       0.79847100
H        1.09475500       0.95083100      -2.35178300
H        2.33682500       1.02028800       1.59595400
H        2.81750400      -0.70343800       0.96506400
H        1.16225800      -2.10568100      -0.12561200
H       -1.45146300      -1.81464500      -0.76365600
H       -2.95779900       0.45597200      -0.75705000
H       -2.57013400       1.67741000       0.32298600
H        0.75062700       1.23506100      -1.75583300
