12
Extracted from Q-Chem output
O       2.269250     -0.864885     -0.326817
C       1.099388     -0.241565     -0.104632
C       1.085526     -1.667740     -0.017046
C      -1.833106      0.519676     -0.034246
C      -0.786816      1.290667      0.242427
C       0.616405      0.984619     -0.046598
H       1.112270     -2.152249      0.953174
H       0.722023     -2.263672     -0.847476
H      -1.727190     -0.425212     -0.555547
H      -2.835231      0.815886      0.248040
H      -0.960651      2.247560      0.726983
H       1.310121      1.804211     -0.194885
