14
Extracted from Q-Chem output
C      -1.521146      0.255989      0.347633
C      -0.205841     -0.372618     -0.024371
C      -0.177667     -1.808407     -0.223593
O       0.644789     -2.471468     -0.821423
C       1.866113     -0.018592     -1.065498
C       0.943056      0.414119     -0.113347
N       1.020975      1.656113      0.441418
H      -2.347666     -0.431613      0.168734
H      -1.709164      1.151832     -0.250956
H      -1.563089      0.546859      1.402810
H      -1.028180     -2.321190      0.271063
H       2.201155     -1.051670     -0.933490
H       0.200802      2.063791      0.851632
H       1.688333      2.293049      0.044296
