13
Extracted from Q-Chem output
C       1.774291     -0.268043     -0.359364
C       0.555720      0.603689     -0.324011
O       0.440309      1.787797     -0.235939
N      -0.421964     -0.368219      1.086642
C      -1.051046     -0.614385     -0.067461
C      -1.700953      0.329860      0.815522
H       2.312848     -0.060486     -1.285215
H       2.404322     -0.005502      0.488080
H       1.513598     -1.321435     -0.306935
H      -1.244816     -1.521037     -0.633509
H      -0.320789      0.063441     -1.100068
H      -2.560712      0.010888      1.395376
H      -1.651354      1.389093      0.568477
