14
Extracted from Q-Chem output
O       0.220883     -2.551425      1.375896
C       0.108967     -1.511808      0.800939
C      -0.635793     -0.216208      1.099447
C      -0.397322      0.196384     -0.379047
C       0.158308      1.582605     -0.630466
C       0.572092     -1.003904     -0.559231
H       1.068705      1.747573     -0.047582
H      -0.078261      0.402182      1.808530
H      -1.660989     -0.322753      1.453836
H      -1.304615      0.041419     -0.966098
H       0.406176      1.724752     -1.684491
H      -0.562469      2.353481     -0.349853
H       0.416807     -1.678889     -1.400781
H       1.625199     -0.709763     -0.531596
