14
Extracted from Q-Chem output
O       1.592598     -0.498700      1.393549
C       0.543270     -0.464306      0.613183
C      -0.956641     -0.243347      0.850442
C      -0.744289      0.178321     -0.619000
C       0.365352      1.179426     -0.287301
C       0.227242     -1.009812     -0.787477
H       1.361702      0.573031      0.722461
H      -1.242273      0.527006      1.564998
H      -1.509431     -1.171057      1.004901
H      -1.545666      0.419701     -1.311306
H       1.050944      1.407598     -1.104157
H       0.050588      2.057477      0.277812
H      -0.226226     -2.001905     -0.772364
H       1.002834     -0.926193     -1.547375
