17
Extracted from Q-Chem output
C      -2.349357     -0.561144     -0.366178
C      -1.142010      0.326798     -0.630407
C       0.164171     -0.269849     -0.125927
O       0.329566     -1.506228     -0.813863
C       1.343436      0.672882     -0.375065
C       2.468726      0.583474      0.468481
O       2.195183      1.001611      1.641935
H      -3.263088     -0.094137     -0.737772
H      -2.238076     -1.528063     -0.856468
H      -2.479370     -0.740158      0.704333
H      -1.037163      0.509771     -1.704466
H      -1.274069      1.301412     -0.154951
H       0.074759     -0.463268      0.952322
H       1.122148     -1.935508     -0.489104
H       1.198193      1.361846      0.947124
H       1.508277      0.838656     -1.438223
H       3.492782      0.273048      0.246233
