17
smiles: [C:1]([C:2]1=[C:3]([H:11])[C:4]([H:12])([H:13])[C:5]1([H:14])[H:15])([H:8])([H:9])[H:10].[C:6]([O:7][H:17])[H:16]
C        1.86630700      -0.44806300      -0.54458900
C        0.48464500      -0.70894600      -0.06709400
C       -0.09662000      -0.84725700       1.12534300
C       -1.47975400      -1.07644400       0.56091300
C       -0.80434900      -0.91694900      -0.83452300
C       -0.08110700       2.67117100      -0.37833100
O       -0.30601400       2.28086300       0.84442500
H        1.90382300       0.46885600      -1.13908900
H        2.21480100      -1.26039800      -1.18811500
H        2.56203700      -0.34566400       0.28900100
H        0.28119800      -0.81003900       2.14079000
H       -2.22467700      -0.31319700       0.79661400
H       -1.91574400      -2.06055300       0.74684500
H       -0.83674200      -1.80847500      -1.46590000
H       -1.14879300      -0.06054100      -1.41964200
H       -0.28663300       3.76454700      -0.32579200
H       -0.15158000       1.32951600       0.89974000
