11
Extracted from Q-Chem output
O       2.318056     -0.950167     -0.135813
C       1.170517     -0.608167     -0.073561
C       0.581922      0.693207      0.004628
C      -0.599265      1.188474      0.072763
N      -1.549834      0.210587      0.072221
C      -1.147160     -1.096510      0.003292
N       0.065069     -1.502742     -0.063420
H       1.843608      1.711961      0.385372
H       1.811899      1.743609     -0.394875
H      -2.532152      0.427508      0.121765
H      -1.947523     -1.833057      0.007074
