17
Extracted from Q-Chem output
C      -2.292229     -0.202510      0.185090
C      -0.909561      0.069859     -0.366838
C       0.035736      0.990989      0.448615
C       1.152554      0.012322      0.128972
C       2.475255      0.280612     -0.413192
O       2.296925     -0.201133      0.915926
C       0.152964     -1.057092     -0.276660
H      -2.233779     -0.567160      1.214031
H      -2.902665      0.703497      0.185594
H      -2.814238     -0.957431     -0.407375
H      -0.978393      0.430656     -1.395814
H       0.151901      2.026334      0.128171
H      -0.203655      0.967227      1.514686
H       2.928397     -0.425755     -1.103958
H       2.828980      1.305542     -0.489759
H      -0.050068     -1.732312      0.558173
H       0.361877     -1.643643     -1.171305
