17
Extracted from Q-Chem output
C      -1.922722     -0.374274      0.678850
C      -1.183004      0.134766     -0.560645
C      -0.160817      1.145331     -0.142865
C       0.943360      0.300064     -0.367655
C       2.230382      0.051253      0.512988
O       1.739167     -0.790205      1.383521
C       0.022141     -0.775554     -0.952185
H      -1.205594     -0.617215      1.467667
H      -2.630555      0.367000      1.052133
H      -2.472437     -1.282246      0.426266
H      -1.877455      0.421949     -1.351095
H       0.996848      1.171765     -1.165869
H      -0.206880      2.163939      0.230972
H       3.036744     -0.313979     -0.158215
H       2.536678      1.057349      0.880341
H       0.078478     -1.707198     -0.396535
H       0.147446     -0.954549     -2.019457
