13
smiles: [C:1](=[N+:2]1[C:3]([H:10])([H:11])[C:4]1=[C:5]([O-:6])[H:13])([H:7])[H:8].[H:9][H:12]
C        1.43178700       0.66855400      -0.98202200
N        0.27206300       0.53214300      -0.44291500
C       -0.64262400       1.22101900       0.48205300
C       -0.87478600      -0.06347400      -0.17199000
C       -1.52611300      -1.30348500      -0.37014800
O       -2.58844900      -1.62941300       0.12176600
H        1.99839700       1.56192400      -0.77077500
H        1.80400300      -0.10719500      -1.63493900
H        1.58999200      -1.05816800       1.61361700
H       -0.29377300       1.27193700       1.51259000
H       -1.09125700       2.13345100       0.09338900
H        0.90940200      -1.36009800       1.62090000
H       -0.96996600      -1.98650900      -1.04513300
