19
smiles: [C:1]([C:2]([H:11])([H:12])[H:19])([H:8])([H:9])[H:10].[C:3](=[C:4]([C:5]([C:6](=[O:7])[H:18])([H:16])[H:17])[H:15])([H:13])[H:14]
C       -1.72697000       0.51911000      -1.43821900
C       -1.72197400       1.38970800      -0.18904300
C        0.04564500      -1.57112000       1.65756700
C        1.23661800      -1.11295200       1.30841500
C        1.65041600      -0.81731800      -0.10253100
C        2.04306000       0.62863700      -0.28970500
O        1.69322300       1.31053100      -1.21106800
H       -2.48088000       0.85359100      -2.15353100
H       -0.75996700       0.54371200      -1.94445000
H       -1.94400400      -0.52306200      -1.19559700
H       -0.96937400       1.05402400       0.52707600
H       -2.68969900       1.36625500       0.31581100
H       -0.72393700      -1.77124900       0.91974700
H       -0.20117600      -1.76748700       2.69353600
H        1.98058500      -0.92420500       2.07903500
H        0.86895400      -1.06555200      -0.82105200
H        2.54039800      -1.41038600      -0.35200600
H        2.70845800       1.04397900       0.49764600
H       -1.50305400       2.43162200      -0.43116200
