13
Extracted from Q-Chem output
C      -1.630386      0.463510      0.137927
C      -0.392251     -0.097501     -0.270027
O      -0.268470     -0.636626     -1.471768
C       0.882466      0.403576      0.360200
O       1.958352     -0.386816     -0.095783
H      -1.609363      1.341394      0.768088
H      -1.197928     -0.766670      0.710692
H      -2.491090      0.271639     -0.484780
H      -0.369904     -1.556008      0.640022
H       0.615158     -1.039505     -1.511463
H       0.983392      1.444941      0.028311
H       0.789936      0.378491      1.446835
H       2.724417      0.168659     -0.238914
