10
Extracted from Q-Chem output
O       2.005726      1.171137      0.836545
C       1.502376      0.070961      0.301501
C       0.206442     -0.106577     -0.001711
N      -0.392721     -1.193468     -0.544629
C      -1.647226     -0.863846     -0.632343
C      -1.935786      0.496327     -0.136822
O      -0.720140      0.897258      0.238688
H       2.224427     -0.711950      0.113127
H      -2.387429     -1.542789     -1.033316
H       1.304610      1.821000      0.976136
