10
Extracted from Q-Chem output
O       1.123820      0.595055      1.128843
C       1.455812      0.019508      0.079820
C       0.476457      0.137133     -1.010706
N      -0.217518     -1.004463     -0.817935
C      -1.308957     -0.600863     -0.145315
C      -1.289438      0.786467      0.122568
O      -0.250854      1.210585     -0.701821
H       2.280362     -0.689132      0.064595
H      -2.011641     -1.322368      0.245215
H      -0.179724      0.909934      1.067036
