13
Extracted from Q-Chem output
N      -2.121215      0.371068     -0.200984
C      -2.002094     -0.907738      0.144279
O      -0.777762     -1.418534     -0.007201
C       0.352494     -0.686709     -0.475638
C       1.010822      0.066358      0.682900
C       2.162310      0.836343      0.224486
N       3.054531      1.438846     -0.170549
H      -1.408825      0.976144     -0.589096
H      -3.039073      0.768879     -0.119920
H       0.099696     -0.014502     -1.300044
H       1.038936     -1.433344     -0.871492
H       0.302599      0.745942      1.160674
H       1.333143     -0.647351      1.442445
