13
Extracted from Q-Chem output
N      -1.823193      0.935155     -0.159658
C      -2.039365     -0.292645      0.355599
O      -0.998470     -1.107576      0.319365
C       0.168338     -0.780860     -0.453477
C       1.146093      0.040946      0.382931
C       2.418059      0.206280     -0.313005
N       3.409479      0.320173     -0.877944
H      -2.726921      1.404409     -0.211798
H      -2.104603      0.735437      1.096200
H      -0.111034     -0.240627     -1.357218
H       0.604237     -1.741163     -0.721871
H       0.728802      1.027496      0.588207
H       1.329453     -0.458805      1.336046
