11
Extracted from Q-Chem output
N       2.943569     -0.628147      0.070323
C       1.927628     -0.098462      0.048801
C       0.617201      0.571305     -0.045251
C      -0.402073     -0.382507     -0.628758
C      -1.448652     -0.838110      0.035169
O       0.296632      1.057808      1.231839
H       0.756914      1.399515     -0.754504
H      -0.492232      1.599831      1.153191
H      -0.219421     -0.673309     -1.658615
H      -2.155647     -1.508846     -0.435306
H      -1.623823     -0.573794      1.071134
