16
Extracted from Q-Chem output
C      -2.633737      0.158811      0.561763
N      -1.629439     -0.204553     -0.429393
C      -0.460627      0.617484     -0.412773
C       0.706353     -0.001716     -0.200292
O       0.779994     -1.325682      0.008365
O       1.878438      0.637667     -0.213306
C       2.972386      0.015293      0.446547
H      -2.213116      0.036096      1.560953
H      -3.497549     -0.502291      0.470052
H      -2.978898      1.197265      0.467611
H      -2.048534     -0.226738     -1.349713
H      -0.150655     -1.611315     -0.041221
H      -0.507937      1.691892     -0.552407
H       3.796443      0.721102      0.373409
H       3.246505     -0.923390     -0.035520
H       2.741743     -0.172808      1.497560
