12
Extracted from Q-Chem output
N       0.935271      0.195605      0.339821
C       0.765711     -0.135162     -1.128524
C      -0.581757     -0.800395     -1.028692
O      -1.291318      0.028706     -0.051739
C      -0.416676      0.659707      0.699722
N      -0.561397      1.495595      1.618200
H       1.581852      0.961337      0.497748
H       1.186931     -0.565674      0.991973
H       1.557559     -0.830167     -1.415038
H      -1.149361     -0.775073     -1.957240
H      -0.636622     -1.822553     -0.609281
H      -1.539702      1.727238      1.757490
