18
smiles: [C:1]([C:2]([O:6][H:18])([H:10])[H:11])([H:7])([H:8])[H:9].[C:3]([C:4]([H:12])([H:13])[H:14])[C:5]([H:15])([H:16])[H:17]
C        2.26933100      -0.12801400      -0.71519200
C        1.16415100      -1.11189700      -1.02063100
C       -0.67838300       0.32616300       1.14660900
C       -1.90765000      -0.47519600       1.07759700
C       -0.86425800       1.70853800       0.68413900
O       -0.03411900      -0.38107800      -1.21884900
H        2.39441400       0.57352300      -1.54122200
H        3.21470800      -0.65061100      -0.55848100
H        2.03380900       0.44236800       0.18449000
H        1.05066200      -1.81997700      -0.18942100
H        1.41550700      -1.69214100      -1.91810300
H       -2.30215900      -0.34572700       2.10092400
H       -1.71308500      -1.54547400       0.99470100
H       -2.68881700      -0.15313300       0.37387300
H       -1.03902300       2.23280000       1.63980500
H       -1.71585800       1.91819300       0.02076700
H        0.05685900       2.15043000       0.30096000
H       -0.74383700      -0.99509400      -1.41029500
