10
Extracted from Q-Chem output
N       2.031403     -0.263620     -0.137403
C       0.785055     -0.302390      0.009871
C      -0.188143      0.822221     -0.249703
N      -1.389354      0.202788      0.259386
N      -1.189173     -1.090002      0.536171
N       0.014125     -1.423500      0.455617
H       0.082793      1.725433      0.295743
H       2.435124     -1.163861      0.115994
H      -0.254418      1.049584     -1.316802
H      -2.328991      0.456195      0.013164
