10
Extracted from Q-Chem output
N       1.801053      0.027358      0.193389
C       0.581551     -0.405985     -0.012199
C      -0.284621      0.705493     -0.300112
N      -1.490195      0.148127      0.182397
N      -1.352632     -1.126199      0.474038
N      -0.132387     -1.527239      0.323524
H       1.022470      1.174040      0.102040
H       2.596155     -0.597300      0.122043
H      -0.327429      1.078028     -1.321863
H      -2.415545      0.536524      0.218782
