15
Extracted from Q-Chem output
O      -2.441462      1.285454     -0.124276
C      -1.096833      0.892564     -0.283867
C      -0.897935     -0.332385      0.617798
C       0.517939     -0.743738      0.562033
O       0.832185     -1.686732     -0.252884
C       1.652598     -0.038583      1.203750
O       2.285729      0.215797      0.017122
H      -2.604242      2.056509     -0.669629
H      -0.402403      1.686721      0.009160
H      -0.874145      0.615961     -1.319955
H      -1.541149     -1.140025      0.267664
H      -1.164250     -0.053383      1.638949
H       1.285545      0.844814      1.753890
H       2.197069     -0.679424      1.927016
H       1.802466     -1.432484     -0.408026
