14
Extracted from Q-Chem output
C       1.771099      0.423034      0.182490
C       0.268035      0.421588      0.123528
C      -0.308715     -0.924350     -0.226607
C      -1.787721     -1.143801     -0.396540
O      -2.670348     -0.340730     -0.282586
C      -0.441854      1.515187      0.369555
H       2.135977     -0.304972      0.913296
H       2.155065      1.404428      0.458750
H       2.201734      0.145674     -0.784340
H      -1.520515      1.524391      0.326432
H       0.011080     -1.666344      0.519252
H       0.148285     -1.292136     -1.156439
H      -2.030704     -2.197366     -0.658272
H       0.064117      2.440624      0.621562
