14
Extracted from Q-Chem output
C      -1.861843      0.223744      0.009327
C      -0.376498      0.095192     -0.015108
C       0.583673      0.964640      0.510919
C       1.817401      0.339068      0.359670
N       1.735071     -0.882329     -0.197402
C       0.332156     -1.239226      0.050091
O      -0.093746     -2.325518      0.247706
H      -2.172000      1.263722     -0.085671
H      -2.243913     -0.167378      0.955143
H      -2.320312     -0.356837     -0.790398
H       0.205840     -0.055042     -1.445144
H       0.417872      1.982271      0.832187
H       2.786864      0.799414      0.500530
H       1.094174     -0.486040     -1.425940
