14
Extracted from Q-Chem output
C       2.155393      0.217042      0.489973
N       0.733301      0.018634      0.711925
C      -0.771264     -0.086614     -0.734661
C      -2.071072     -0.759624     -0.565236
C      -0.259220      0.960344      0.118725
N      -0.528379      2.135121      0.275897
H       2.321854      0.411853     -0.570743
H       2.721392     -0.670195      0.775467
H       2.525331      1.079293      1.049718
H       0.488160     -0.295146      1.642763
H      -0.208830     -0.304241     -1.642059
H      -2.764758     -0.302465     -1.282296
H      -2.012943     -1.818644     -0.821546
H      -2.480435     -0.616381      0.433325
