14
Extracted from Q-Chem output
C      -1.458263     -0.420605      0.225238
C      -0.445607      0.582539     -0.939789
C       0.572851      1.336056     -0.155321
O       1.324855      0.636400      0.870429
C       1.512046     -0.675223      0.652804
N       0.813171     -1.445389     -0.059531
C      -0.342903     -0.875097     -0.710863
H      -1.200576     -0.448006      1.277531
H      -2.444464     -0.793005     -0.030958
H      -1.612458      0.709082     -0.144045
H       0.171471      2.221808      0.332451
H       1.291676      1.670229     -0.912167
H       2.373135     -1.054287      1.197917
H      -0.682504     -1.523983     -1.510749
