17
Extracted from Q-Chem output
C      -2.064957     -0.490010      0.308869
C      -0.971384     -0.718344     -0.675802
O      -0.453376      1.690663      0.032368
C       0.789108      1.635696     -0.293594
C       1.536149      0.405906     -0.050060
C       1.041607     -0.650462      0.833203
C       0.328405     -1.043889     -0.436434
H      -2.686557      0.349361      0.003330
H      -1.703327     -0.286347      1.312402
H      -2.696407     -1.386489      0.331576
H      -1.312036     -0.876567     -1.697461
H       1.127342      2.126307     -1.229078
H       1.530189      2.088277      0.500348
H       2.520025      0.305249     -0.503422
H       0.351223     -0.298893      1.592608
H       1.781353     -1.348414      1.212036
H       0.904694     -1.520696     -1.220698
