12
Extracted from Q-Chem output
N       2.405642     -0.982305      1.491145
C       1.633492     -0.742686      0.660111
C       0.753429     -0.417600     -0.390263
C      -0.582179     -1.124820     -0.428318
N      -1.591389     -0.178964      0.101879
C      -1.092843      0.955635      0.179631
N       0.342423      1.025842     -0.251939
H       0.415579      1.537369     -1.131052
H      -0.936399     -1.386550     -1.430898
H      -0.591048     -2.039493      0.164959
H      -1.580967      1.868517      0.499655
H       0.929373      1.508687      0.428617
