13
Extracted from Q-Chem output
C       2.414886     -0.080705     -0.240751
O       1.377900      0.608629     -0.817392
C       0.173791      0.398743     -0.504751
C      -0.224090     -0.578739      0.541918
N      -1.624865     -0.254980      0.625287
C      -1.888175      0.738328     -0.257893
N      -0.869884      1.163197     -0.940885
H       3.322793      0.117994     -0.792175
H       2.184253     -1.119762     -0.019262
H       0.377193     -0.366119      1.450724
H      -0.033172     -1.627707      0.276884
H      -2.304053     -0.730250      1.186852
H      -2.888021      1.139260     -0.362162
