13
Extracted from Q-Chem output
O      -1.333662     -0.517112      1.443170
C      -1.268192     -0.634473      0.050062
C      -0.505512      0.501513     -0.631660
N       0.941510      0.321492     -0.694981
C       1.742636      0.194296      0.375926
O       1.370378      0.126108      1.531294
H      -0.434495     -0.341844      1.761582
H      -2.299220     -0.613640     -0.311871
H      -0.829193     -1.593079     -0.263296
H      -0.738885      1.436544     -0.113836
H      -0.845812      0.597043     -1.663514
H       1.388855      0.373476     -1.592356
H       2.811593      0.149675      0.109479
