15
Extracted from Q-Chem output
C      -2.494159     -0.313551      0.020810
C      -0.986754     -0.403489     -0.004347
O      -0.458310      0.811001      0.490318
C       0.924939      0.808503      0.614774
N       1.591523      0.735518     -0.671944
C       2.610894      0.004976     -0.754066
H      -2.854243     -0.155418      1.038254
H      -2.834342      0.517895     -0.597536
H      -2.934167     -1.234609     -0.365331
H      -0.635658     -1.238176      0.621428
H      -0.626554     -0.579653     -1.024821
H       1.192014      1.763682      1.071502
H       2.991510     -0.593781      0.084545
H       1.250711     -0.013480      1.280028
H       3.156774     -0.047955     -1.694303
