14
Extracted from Q-Chem output
C      -2.005950      1.024704      0.057271
C      -1.115763     -0.157632      0.292395
O      -0.423424     -0.615366     -0.867581
C       2.004650     -1.128446     -0.150167
C       0.762245     -0.359998     -0.171643
N       1.889901      0.228863     -0.760556
O       0.112314      0.150735      0.959606
H      -2.390762      1.393156      1.009584
H      -2.849176      0.729228     -0.568905
H      -1.449540      1.818115     -0.441145
H      -1.635017     -0.982657      0.793764
H       2.181226     -1.922818     -0.864639
H       2.504257     -1.226638      0.807556
H       2.283256      0.964502     -0.186668
