15
Extracted from Q-Chem output
C       1.773375     -0.163502      0.844829
C       0.376467     -0.073056      0.293605
C       0.020973     -1.103042     -0.833964
C      -0.549896     -1.198797      0.523795
O      -1.344037     -1.745574      1.224821
C      -1.410642      1.489349      0.103455
O      -0.025158      1.253059      0.227109
H       2.452681      0.400459      0.203035
H       2.114677     -1.197467      0.897452
H       1.801856      0.263731      1.847390
H      -0.681497     -0.817075     -1.611037
H       0.820340     -1.755372     -1.166965
H      -1.968012      1.034767      0.928330
H      -1.807178      1.115502     -0.847289
H      -1.543649      2.568983      0.131199
