14
Extracted from Q-Chem output
N       1.665273      0.790322      0.858619
C       0.620244      0.146754      1.434418
O       0.217428      0.404236      2.550086
C      -0.030251     -0.936216      0.585461
C      -1.173855     -0.387505     -0.261968
C      -0.752687      0.354809     -1.497605
O       0.385477      0.515668     -1.853389
H       2.045632      1.584441      1.343079
H       1.818134      0.701796     -0.132031
H      -0.421700     -1.674535      1.283277
H       0.705325     -1.422777     -0.057505
H      -1.830304     -1.196868     -0.602424
H      -1.821234      0.273850      0.324954
H      -1.585168      0.756676     -2.109117
