17
smiles: [C:3](=[C:4]([C:5]1([H:13])[C:6]([H:14])([H:15])[C:7]1([H:16])[H:17])[H:12])([H:9])[H:10].[O:1]=[C:2]([H:8])[H:11]
O        0.95615600       0.34712800       2.62585100
C        1.68491200       0.75608900       1.77049100
C        1.55770900      -1.03742300      -1.23574500
C        0.38519100      -0.87312700      -0.64022400
C       -0.63143700       0.12058500      -1.02977500
C       -2.09230600      -0.21780100      -0.88854800
C       -1.47130300       0.77953000       0.03309700
H        2.73753700       0.42295200       1.68880800
H        1.85385900      -0.42534900      -2.08112100
H        2.26206100      -1.78831400      -0.90102000
H        1.34699500       1.49027800       1.01394100
H        0.12553600      -1.50899300       0.20475600
H       -0.36323300       0.73983200      -1.87828600
H       -2.76819300       0.13723200      -1.65498200
H       -2.34056000      -1.19388900      -0.49125100
H       -1.71566700       1.82525300      -0.09773600
H       -1.29525800       0.48570200       1.06020500
