15
Extracted from Q-Chem output
C       2.100296     -0.565165     -0.180080
C       0.927378      0.275340      0.275429
C      -0.359531     -0.384980      0.123613
C      -1.595149      0.201172     -0.089797
N      -2.649898     -0.489027     -0.628492
C      -1.766528      1.407388      0.583396
N       1.046847      1.455461      0.750756
H       3.042735     -0.039510     -0.031127
H       2.133631     -1.500397      0.383599
H       2.003594     -0.825650     -1.235921
H      -0.340652     -1.472365      0.168999
H      -3.563346     -0.214602     -0.308331
H      -2.521849     -1.472965     -0.794863
H      -0.982790      2.146156      0.386542
H       2.011196      1.773877      0.685897
