19
Extracted from Q-Chem output
C       2.421927      0.122754      0.703450
C       1.179728     -0.380573     -0.017859
C       0.494197      0.576649     -0.852443
C      -0.743492      0.203488     -1.536174
C      -1.542851      0.201778     -0.242610
C      -1.459558     -0.911259      0.693032
O      -1.996905      1.416331      0.233748
H       2.781650     -0.609783      1.427818
H       2.209301      1.048134      1.244105
H       3.230570      0.327631      0.000124
H       0.398593     -0.740095      0.784551
H       1.382079     -1.327610     -0.534192
H       0.645133      1.633244     -0.656148
H      -0.745930     -0.787811     -1.996436
H      -1.137590      0.942230     -2.229643
H      -2.501083     -0.589228     -0.179672
H      -1.750509     -0.773011      1.725746
H      -1.336450     -1.914594      0.308933
H      -1.523414      1.642929      1.037588
