15
Extracted from Q-Chem output
C      -1.301006      0.353645      1.303672
C      -1.016072     -0.837820     -1.718123
N       0.131083     -0.321197     -1.242219
C       0.555895     -0.129272     -0.013498
O      -0.246139     -0.555433      0.997801
C       1.913465      0.377525      0.312719
H      -1.883255      0.599301      0.410448
H      -0.898844      1.271473      1.742098
H      -1.944344     -0.141937      2.028728
H      -1.685782     -1.326319     -1.032617
H      -1.102764     -0.935084     -2.785519
H       0.773706      0.009541     -1.948112
H       2.462263      0.654028     -0.589560
H       2.500938     -0.379087      0.843589
H       1.868550      1.260934      0.957962
