15
Extracted from Q-Chem output
C      -1.670662      0.304942      0.913343
C      -1.061217     -0.523359     -1.363482
N       0.264278     -0.212848     -1.153156
C       0.754471     -0.267081      0.079092
O      -0.046618     -0.660935      0.977762
C       2.123166      0.240235      0.394474
H      -2.551551     -0.280410      0.693976
H      -1.646568      1.259575      0.403203
H      -1.471134      0.390856      1.974004
H      -1.381790     -1.478087     -0.973767
H      -1.440122     -0.231619     -2.335012
H       0.788941      0.276907     -1.860122
H       2.617360      0.649176     -0.488760
H       2.749352     -0.556296      0.799394
H       2.047820      1.019993      1.155143
