14
smiles: [C:1]([C:2](=[C:3]([H:11])[H:12])[H:10])([H:7])([H:8])[H:9].[C:4]([O-:5])(=[C+:6][H:14])[H:13]
C        1.60296000       0.12458700       0.31127300
C        0.92039800      -0.24471900      -0.96703200
C        0.43029400      -1.44187300      -1.24892600
C       -1.88168900       0.35654600       0.69123200
O       -1.42927000       0.25018800       1.85303300
C       -1.68300000       1.70189100       0.68244300
H        1.63532500      -0.71883400       1.00239600
H        1.08847900       0.95377200       0.80372700
H        2.62843100       0.45398900       0.12425000
H        0.82990200       0.54523900      -1.70923800
H        0.49623700      -2.26211800      -0.54122100
H       -0.05292900      -1.64755600      -2.19633600
H       -2.17587200      -0.45038700       0.01816900
H       -2.44291600       2.34717300       1.11936400
