12
Extracted from Q-Chem output
C      -1.631295     -0.381806      0.043183
C      -0.161450     -0.408390     -0.018075
C       0.915851     -1.180751     -0.108098
C       1.835559      0.005851     -0.090389
N       0.798264      0.818527      0.001640
N       0.600758      2.066174      0.080534
H      -1.996887      0.082168      0.963659
H      -2.068966      0.152704     -0.804831
H      -2.003163     -1.406620      0.017676
H       1.061763     -2.247091     -0.172620
H       2.883751      0.242263     -0.116908
H      -0.406459      2.205218      0.134965
