18
smiles: [C:1]([C:2](=[C:3]([H:11])[H:12])[H:10])([H:7])([H:8])[H:9].[C:4]([C:5]([H:15])([H:16])[H:17])(=[O:6])[H:14].[H:13][H:18]
C       -1.85535500       1.16993400      -0.42568100
C       -1.63868500       0.40473700       0.84061700
C       -1.46270100      -0.90519200       0.91723100
C        1.72420400       0.58159800       0.31745300
C        2.26722500      -0.81536300       0.30856100
O        1.61386400       1.27561300      -0.65512700
H       -1.07467400       1.92201400      -0.56676000
H       -1.85600700       0.51112800      -1.29518600
H       -2.80852500       1.70439900      -0.39996300
H       -1.62979800       0.98843500       1.75839100
H       -1.31272900      -1.40269100       1.86768000
H       -1.46411700      -1.52905400       0.02905400
H        0.17834400      -1.06001500      -2.70111200
H        1.41385700       0.96428000       1.31307100
H        3.14922400      -0.86457700       0.95273500
H        2.52693500      -1.12066800      -0.70322600
H        1.52625400      -1.49887100       0.73097200
H        0.48223200      -0.45374700      -2.39374400
