16
Extracted from Q-Chem output
C       1.992397     -0.166235      0.555705
C       0.986846     -0.329755     -0.545034
N       0.001842     -1.420373     -0.367910
C      -1.172373      0.629611      0.765314
C      -0.436017     -0.016680     -0.353464
O      -1.514451      1.946327      0.374303
C      -0.919583     -0.916814     -1.402283
H       2.829977     -0.849091      0.406864
H       2.382749      0.852960      0.570786
H       1.550176     -0.385784      1.527851
H       1.380732     -0.210426     -1.555534
H      -0.542888      0.634650      1.663228
H      -2.066836      0.032934      0.984932
H      -1.999491      2.361042      1.088893
H      -0.539090     -0.806948     -2.416197
H      -1.924496     -1.315637     -1.318949
