14
Extracted from Q-Chem output
N      -1.352884      1.939626     -1.276764
C      -0.682168      1.474157     -0.393748
C       0.052869      0.824289      0.618122
C       1.381843      0.159502      0.219425
C       0.945286     -1.170954     -0.344775
C      -0.368964     -1.367730     -0.231266
C      -1.124796     -0.241340      0.320977
H       0.005064      1.313730      1.586865
H       1.926707      0.773971     -0.501358
H       2.031271      0.046853      1.092610
H       1.646742     -1.870133     -0.779452
H      -0.868640     -2.273274     -0.555704
H      -1.785935      0.819718     -0.906549
H      -1.793143     -0.396398      1.163594
