11
Extracted from Q-Chem output
C       1.436848     -0.472445     -0.062912
C       0.092349      0.118623     -0.236480
O      -0.042713      1.098414     -1.095089
C      -1.075138     -0.223742      0.434594
O      -2.209578      0.509244      0.020801
H       2.162336      0.301311      0.194513
H       1.425341     -1.231996      0.716853
H       1.761798     -0.927211     -1.001417
H      -1.365296      0.694889      1.099741
H      -1.028209      1.268080     -1.058319
H      -1.184790     -1.191614      0.917891
