15
smiles: [C:5]([C:6](=[O:7])[H:13])([H:11])([H:12])[H:14].[N:1]([C+:2]([O:3][H:15])[N-:4][H:10])([H:8])[H:9]
N        2.48845800       1.46497300      -0.73219400
C        1.48363200       0.73042800      -0.15975000
O        0.63155400       1.53664200       0.50221600
N        1.26487200      -0.51691700      -0.21032400
C       -1.95497400      -1.05819100      -0.14902700
C       -1.96460900      -0.74036200       1.31565700
O       -1.91791700       0.36785800       1.77324300
H        2.62277800       2.39526000      -0.37778900
H        3.31895500       0.97395400      -1.00516400
H        1.96680000      -1.01317000      -0.74454100
H       -1.10488700      -1.70732100      -0.37472900
H       -1.89985300      -0.14680600      -0.74116000
H       -2.01993100      -1.62064500       1.99096400
H       -2.85781300      -1.61899600      -0.40494200
H       -0.06498000       0.96067700       0.83558300
