15
Extracted from Q-Chem output
N       2.270391      1.340776     -0.541749
C       1.113420      0.740219     -0.121691
O       0.310353      1.553156      0.484825
N       0.834036     -0.510088     -0.345957
C      -1.207532     -1.007306     -0.249841
C      -1.596890     -0.728116      1.087964
O      -1.588073      0.461956      1.563897
H       2.480966      2.225850     -0.116208
H       3.052016      0.761809     -0.784514
H       1.550762     -0.996194     -0.867173
H      -1.108591     -2.038169     -0.562038
H      -1.365619     -0.242947     -0.996694
H      -1.605770     -1.583756      1.775638
H      -2.575379     -1.066420      0.295042
H      -0.565279      1.092825      0.956504
