12
Extracted from Q-Chem output
O       1.578086     -0.015605      0.964414
C       1.088213     -0.655327     -0.187151
C      -0.430055     -0.612854     -0.274531
C      -1.458435      1.536091      0.491208
N      -0.908015      0.765144     -0.403260
H       1.318793      0.909410      0.941846
H       1.413899     -1.695026     -0.127093
H       1.526195     -0.226046     -1.099398
H      -0.773359     -1.197460     -1.132492
H      -1.561871      0.919695      1.406963
H      -0.867326     -1.027371      0.634412
H      -0.737936      1.174089     -1.314985
