15
Extracted from Q-Chem output
C      -0.259542     -1.324247      1.450978
C      -0.569821     -0.058112      0.656379
C       0.682966      0.887665      0.522832
C       0.843258      1.075406     -0.940203
C       0.833134      1.114782     -2.244129
C      -0.178922      0.311670     -1.640505
C      -0.983770     -0.329381     -0.796934
H       0.547717     -1.887618      0.975661
H       0.036274     -1.093812      2.478100
H      -1.135704     -1.974047      1.496850
H      -1.365463      0.480731      1.186142
H       0.555231      1.847128      1.025982
H       1.586231      0.435654      0.940387
H       1.261829      1.486768     -3.162099
H      -1.825506     -0.960369     -1.049204
