17
Extracted from Q-Chem output
C       2.191122      0.419787     -0.639086
C       1.007868     -0.389402     -0.170165
C       0.607045     -0.179064      1.296399
O      -0.809029     -0.188043      1.281596
C      -1.224695     -0.413704     -0.052109
C      -2.475753      0.360181     -0.359500
O      -0.163031      0.010028     -0.861377
H       2.378365      0.248075     -1.699279
H       3.087418      0.137746     -0.083097
H       2.003751      1.483785     -0.485431
H       1.182928     -1.459374     -0.354535
H       0.954440      0.788520      1.671738
H       0.987740     -0.970239      1.948286
H      -1.379538     -1.497643     -0.194272
H      -2.287878      1.425029     -0.222704
H      -2.784980      0.175472     -1.388390
H      -3.275773      0.048845      0.311926
