6
Extracted from Q-Chem output
N       0.689293      0.042669      0.064738
C      -0.655994     -0.036764     -0.063237
O      -1.415694      0.890701      0.064725
H       1.110152      0.928267      0.285870
H       1.271474     -0.765236     -0.048024
H      -0.999231     -1.059637     -0.304072
