6
Extracted from Q-Chem output
N       0.824614      0.213079      0.114691
C      -0.467738      0.205138      0.000378
O      -1.499971      0.755252      0.021216
H       1.289478      1.091780      0.332883
H       0.408649     -1.044504     -0.173455
H      -0.558336     -1.220705     -0.294613
