17
smiles: [C:1]([C@@:2]1([H:11])[C@@:3]2([H:12])[C-:4]=[C:5]([H:15])[C+:6]([H:16])[C@@:7]12[H:17])([H:8])([H:9])[H:10].[H:13][H:14]
C       -1.51046100       0.57581100      -0.34454700
C       -0.69134700      -0.68554100      -0.31400600
C        0.81942700      -0.76383400      -0.37618700
C        1.49498800       0.52902200      -0.14652800
C        1.40438800       0.73161100       1.27132200
C        0.53630100      -0.15382500       1.83728600
C        0.11912600      -1.18622600       0.89088700
H       -1.64655800       0.89791300      -1.37827000
H       -2.49775100       0.39215200       0.08366100
H       -1.04323700       1.39823700       0.19438800
H       -1.16965900      -1.50422400      -0.84598800
H        1.22292700      -1.47071900      -1.09018200
H        0.86657600       1.09730900      -2.76803700
H        0.52854700       1.08464400      -3.43133800
H        1.81927100       1.58949100       1.78657800
H        0.12175800      -0.07103600       2.83817000
H       -0.05614000      -2.20321300       1.22006700
