14
Extracted from Q-Chem output
C       2.470731      0.153723     -0.559390
N       1.104671      0.563699     -0.781333
C       0.217926     -0.009272     -0.099532
N       0.336985     -1.000890      0.825086
C      -2.058014     -0.032525      0.456044
O      -1.085042      0.385632     -0.361512
N      -3.190071      0.475560      0.014782
H       2.623917     -0.913269     -0.768045
H       2.802871      0.345750      0.471051
H       3.127258      0.719171     -1.219065
H      -0.483155     -1.160515      1.392698
H       1.240250     -1.131553      1.241450
H      -4.037346      0.270353      0.509742
H      -3.238579      1.070137     -0.804191
