14
Extracted from Q-Chem output
C      -0.921538      1.124047     -0.463716
C       0.027017      0.099839     -0.186517
C       0.358001     -0.939837     -1.214334
O      -1.322421     -0.895448      0.807462
C       1.009585      0.322477      0.838884
C       1.852069      0.533238      1.663837
H      -0.796662      2.074459      0.039710
H      -1.319588      1.159214     -1.471466
H      -1.621053      0.250145      0.317507
H       0.769955     -1.837410     -0.760085
H       1.097954     -0.515015     -1.898351
H      -0.534567     -1.197711     -1.781555
H      -1.202048     -0.933411      1.763232
H       2.599103      0.724023      2.397812
