8
Extracted from Q-Chem output
O      -1.384620     -0.383394      0.869805
C      -0.305283      0.121280      0.179645
C      -0.289733      1.497177     -0.199234
N      -0.289202      2.613823     -0.474794
C       0.667591     -0.679498     -0.219855
N       1.604709     -1.388234     -0.501890
H      -1.374936     -0.034741      1.765956
H       1.559287     -1.905501     -1.376318
