16
Extracted from Q-Chem output
C       1.164743     -0.633947      1.564152
C       0.146311     -0.431368      0.486901
C      -0.046128      1.071662     -1.751391
C      -0.091241      0.880957     -0.258761
C      -1.209106      0.230948      0.497657
N      -1.779776     -0.905781     -0.286113
C      -0.636251     -1.478396     -0.258702
H       1.340297      0.294461      2.110246
H       2.121435     -0.961695      1.149761
H       0.835258     -1.387695      2.282639
H       0.986387      1.135284     -2.100118
H      -0.554433      1.996098     -2.031472
H       0.339482      1.710246      0.300428
H      -1.750925      0.678792      1.318620
H      -0.537059      0.251110     -2.273685
H      -0.372186     -2.418735     -0.740260
