16
Extracted from Q-Chem output
C       1.460066     -0.688472      1.198724
C       0.322176     -0.362974      0.319579
C       0.259729      1.063071     -1.491499
C      -0.147427      0.996399     -0.068607
C      -1.522892      0.272926      0.103499
N      -1.686732     -0.629586     -0.941439
C      -0.812372     -1.172467      0.061289
H       1.372062     -0.145727      2.145365
H       2.372860     -0.324427      0.719308
H       1.552546     -1.756283      1.396242
H       1.334007      1.043656     -1.639406
H      -0.254711      1.781666     -2.128046
H      -0.017409      1.807403      0.659672
H      -2.283787      0.500785      0.837504
H      -0.974317     -0.218573     -1.677432
H      -1.010118     -2.142538      0.495953
