15
Extracted from Q-Chem output
C      -1.493966     -0.166287      1.716828
O       0.670817      1.025204     -2.019322
C       1.099479     -0.178357     -1.442258
C      -0.288191     -0.030414     -1.865779
C      -0.232692     -0.472287      1.459373
C       0.757037      0.466933      0.837789
O       1.556552     -0.168838     -0.149758
H      -2.158588     -0.863771      2.211388
H      -1.908332      0.800964      1.448921
H       1.792854     -0.756292     -2.045194
H      -1.060844      0.154438     -1.127553
H      -0.627819     -0.486752     -2.791150
H       0.161201     -1.447562      1.732543
H       0.268719      1.356362      0.429272
H       1.467557      0.802341      1.596517
