13
Extracted from Q-Chem output
C       0.599051     -0.911140      0.408847
C      -0.790799     -1.004793     -0.157792
O      -1.570353      0.189510     -0.108708
C      -0.998672      1.409182     -0.199133
N       0.222869      1.702126     -0.249562
C       1.331999      0.964057     -0.357725
H       0.644430     -0.551881      1.430675
H       1.129661     -1.858784      0.311976
H      -0.749435     -1.327964     -1.202507
H      -1.378550     -1.741222      0.393295
H      -1.758594      2.181968     -0.191073
H       2.040468      1.132923      0.455375
H       1.256522     -0.268466     -0.526386
