10
Extracted from Q-Chem output
C      -0.913737      0.200040     -0.778641
C      -0.444311      0.887915      0.309544
N       0.887115      0.960680     -0.236609
C       1.530719     -0.185072      0.016476
N       0.809145     -1.209436      0.398702
C      -0.486776     -0.797772      0.241238
H      -1.779602      0.280657     -1.426245
H      -0.857717      1.610669      1.003750
H       2.594562     -0.264025     -0.168753
H      -1.282887     -1.432059      0.618730
