12
Extracted from Q-Chem output
O       1.519683     -0.688683     -1.123684
C       0.293551     -0.744828     -0.462994
C       0.219497     -0.309400      1.041184
C      -0.788280      0.749344      0.621389
O      -0.135033      1.568955     -0.341752
C      -0.723751      0.350507     -0.785724
H       1.824111      0.223103     -1.082293
H      -0.110107     -1.746362     -0.611818
H      -0.188184     -1.089103      1.683763
H       1.142971      0.081071      1.469440
H      -1.603365      1.192288      1.176909
H      -1.451093      0.413109     -1.584420
