10
Extracted from Q-Chem output
C       2.554420      0.184418      0.291141
C       1.365864      0.120061      0.158127
C      -0.041144      0.022845     -0.000985
C      -0.976861      1.002376      0.072966
O      -2.188621      0.501063     -0.135318
N      -2.089792     -0.851782     -0.358011
C      -0.826412     -1.133900     -0.279305
H       3.610497      0.244337      0.410426
H      -0.913790      2.061791      0.261321
H      -0.494162     -2.151210     -0.420361
