13
smiles: [C:5](=[C:6]([H:12])[H:13])([H:10])[H:11].[O:1]=[C:2]=[N:3][C:4]([H:7])([H:8])[H:9]
O        2.13876000      -0.94527600      -1.22990600
C        1.67760400       0.10973800      -1.03436800
N        1.26739600       1.22582200      -0.93322100
C        0.41309600       2.01702400      -0.09528700
C       -1.40963300      -1.37410700      -0.42736400
C       -0.77355300      -1.46466400       0.72785700
H        0.39115900       3.03676300      -0.47459500
H        0.78453600       2.03620900       0.93053600
H       -0.60486000       1.62401600      -0.09750000
H       -2.40224500      -0.94393300      -0.49774300
H       -0.96499500      -1.72699000      -1.35095400
H        0.21905400      -1.89484800       0.79823700
H       -1.21820600      -1.11178700       1.65144300
