13
Extracted from Q-Chem output
O       2.971946      0.165338     -0.819584
C       1.851450      0.468810     -0.682662
N       0.660258      0.052298     -0.295074
C      -0.233471      1.161585     -0.483147
C      -1.400930     -0.554264      0.321711
C      -0.091486     -1.178250      0.250545
H       0.863079      1.774284     -0.909147
H      -0.510165      1.754681      0.378687
H      -0.859990      1.173724     -1.365564
H      -1.783968     -0.242321      1.283969
H      -2.144112     -0.800242     -0.424467
H       0.019116     -1.986103     -0.471566
H       0.363356     -1.457490      1.199898
