20
smiles: [C:1]([C:2]1=[N+:3]([C-:4]([H:12])[H:14])[C:5]1([C:6]([H:15])([H:16])[H:17])[C:7]([H:18])([H:19])[H:20])([H:8])([H:9])[H:10].[H:11][H:13]
C       -1.33803000       1.63715900       0.70760800
C       -0.42777800       0.47174700       0.59000000
N       -0.51878600      -0.57482600      -0.19935300
C       -1.17984300      -1.44197900      -0.90712100
C        0.78651200       0.09435400      -0.17047900
C        1.92244000      -0.62335600       0.51970300
C        1.16585100       0.79734200      -1.45902200
H       -2.29537200       1.32980500       1.13200700
H       -0.91492200       2.39421900       1.36709800
H       -1.54174600       2.10489600      -0.26732800
H       -1.39130300      -1.31246000       2.23462600
H       -0.62600700      -2.16434000      -1.48623700
H       -1.85951500      -1.87641600       2.36530200
H       -2.25634900      -1.47981500      -0.82478300
H        2.67176900       0.10396600       0.84047800
H        1.55757900      -1.15045900       1.40015700
H        2.41510900      -1.33392000      -0.14985200
H        0.28809200       1.20820400      -1.95892800
H        1.67702800       0.12733200      -2.15379300
H        1.84879800       1.61859400      -1.23109200
