20
Extracted from Q-Chem output
C      -1.339345      1.762808      0.585442
C      -0.643906      0.430546      0.641112
N      -0.768533     -0.471868     -0.485486
C      -1.111144     -1.854750     -0.235554
C       0.555485      0.043886     -0.156035
C       1.588839     -0.855769      0.485648
C       1.141112      0.977003     -1.189329
H      -2.395822      1.649527      0.838951
H      -0.895731      2.463323      1.296798
H      -1.283753      2.199961     -0.410381
H      -0.687493     -0.046812      1.621829
H      -0.696861     -2.483782     -1.025983
H      -0.763560     -2.242364      0.731205
H      -2.197616     -1.955621     -0.264964
H       2.404756     -0.252032      0.888324
H       1.184201     -1.447856      1.305495
H       2.018615     -1.540084     -0.251290
H       0.361116      1.526277     -1.712856
H       1.701436      0.406192     -1.934459
H       1.828205      1.691416     -0.728467
