20
Extracted from Q-Chem output
C      -1.376164      1.706165      0.727517
C      -0.593872      0.471771      0.467153
N      -0.668333     -0.496333     -0.446532
C      -1.198180     -1.718159     -0.455485
C       0.661452      0.076199     -0.228146
C       1.689236     -0.748145      0.517405
C       1.212246      0.859443     -1.399668
H      -2.426229      1.462586      0.897122
H      -0.998368      2.198739      1.623684
H      -1.314022      2.419689     -0.101195
H      -0.907442     -0.741053      1.615025
H      -0.646261     -2.495481     -0.971511
H      -1.105364     -1.563381      1.393834
H      -2.279174     -1.787731     -0.456778
H       2.375836     -0.089438      1.052495
H       1.218253     -1.410351      1.241467
H       2.281403     -1.352311     -0.175214
H       0.417111      1.387264     -1.927083
H       1.723249      0.204124     -2.109752
H       1.938211      1.596131     -1.047703
