16
smiles: [C:1]([H:7])([H:8])([H:9])[H:10].[C:2]([C:3]([H:11])([H:12])[H:13])[C:4]([C:5](=[O:6])[H:16])([H:14])[H:15]
C       -1.96113200      -1.60165600      -0.81003100
C        0.36890400       0.96231800      -0.30614500
C       -0.54150000       1.77325700       0.50336500
C        1.25122100       0.11936600       0.50427700
C        2.56197100      -0.21767000      -0.16996400
O        3.61339600      -0.23075100       0.40332600
H       -2.83282200      -1.94903200      -1.36266300
H       -2.28149400      -1.17006100       0.13700500
H       -1.29389900      -2.44076500      -0.61920400
H       -1.43691700      -0.84724600      -1.39453600
H        0.05758000       2.70261500       0.55522500
H       -1.45961300       2.05507900      -0.01159600
H       -0.73068500       1.45758800       1.53846800
H        1.39702900       0.36596200       1.56554800
H        0.64682400      -0.81106800       0.46078200
H        2.47673500      -0.43617800      -1.25199000
