14
smiles: [C-:5]#[O+:6].[C:1]([C:2]([C:3]([O:4][H:14])([H:12])[H:13])([H:10])[H:11])([H:7])([H:8])[H:9]
C       -2.24944600       0.17801200      -0.06585400
C       -0.99591600       0.79629000       0.53812500
C        0.25373300       0.01339500       0.19558300
O        1.36432800       0.65770600       0.79289700
C        3.78264200      -1.32142300      -0.28862700
O        4.55217400      -2.02438700      -0.70788400
H       -2.40359700      -0.84253200       0.29358700
H       -3.13704400       0.75633700       0.19383700
H       -2.18839900       0.13880600      -1.15639000
H       -1.08385000       0.84932900       1.62663500
H       -0.86916400       1.82288200       0.18406600
H        0.15722000      -1.01749700       0.56418500
H        0.37259900      -0.03590700      -0.89593600
H        2.15892200       0.16690400       0.58127500
