14
Extracted from Q-Chem output
C      -2.033050      0.010213      0.013048
C      -0.671047      0.476881      0.508612
C       0.448785      0.118375     -0.454688
O       1.690893      0.600564      0.005730
C       2.796829     -0.652874      0.727567
O       2.402454     -1.418842      1.477019
H      -2.057695     -1.074122     -0.122350
H      -2.820452      0.271122      0.721517
H      -2.285790      0.469311     -0.945948
H      -0.448506      0.031716      1.482347
H      -0.668066      1.560709      0.651865
H       0.478405     -0.976986     -0.581819
H       0.247016      0.548039     -1.443434
H       2.920225      0.035894     -0.211617
