16
Extracted from Q-Chem output
C       1.236315     -0.898825      0.051400
C       0.341680      0.155854      0.622172
C       0.528580      1.555729      0.182099
C      -0.872975      1.101832     -0.191099
C      -1.608396     -0.631165     -0.078249
O      -1.284947     -1.328180     -1.203253
H       0.954990     -1.904130      0.375999
H       1.238844     -0.870764     -1.040875
H       2.262500     -0.717306      0.382794
H       0.108626      0.048148      1.673910
H       0.611176      2.314134      0.952381
H       1.217430      1.703588     -0.642977
H      -1.643567      1.602582      0.375803
H      -1.046372      1.114821     -1.258704
H      -1.356597     -1.192606      0.829849
H      -0.663878     -2.049100     -1.045528
