14
Extracted from Q-Chem output
C      -1.928670      1.346465     -0.279810
C      -1.301245     -0.001674      0.065567
C       0.092964      0.142614      0.613157
O       2.689778     -2.180065     -0.078147
C       1.157311     -0.409677      0.106303
C       2.221644     -0.939688     -0.426572
H      -1.960746      2.001164      0.594321
H      -2.951229      1.221587     -0.640298
H      -1.355367      1.856239     -1.056527
H      -1.277582     -0.648030     -0.813510
H      -1.918733     -0.506933      0.815613
H       0.199831      0.764795      1.501817
H       3.483903     -2.363164     -0.580368
H       2.787530     -0.402463     -1.182352
