14
Extracted from Q-Chem output
C      -1.722582      1.072796     -0.075199
C      -0.927340     -0.227342     -0.161832
C       0.497945      0.008271      0.244159
O       1.287130     -1.470739      0.069136
C       1.428481      0.687523     -0.653507
C       2.138398     -0.387377     -0.825871
H      -1.713668      1.480577      0.938285
H      -2.762247      0.899531     -0.354894
H      -1.301378      1.824049     -0.743194
H      -0.937024     -0.609603     -1.184740
H      -1.366579     -0.989850      0.486519
H       0.612372      0.229170      1.308450
H       1.767858     -1.700570      0.875468
H       2.964617     -0.873703     -1.317102
