12
Extracted from Q-Chem output
O       1.670757      1.030633     -0.452461
C       0.601667      0.531580     -0.470468
C       0.228496     -0.909383     -0.357432
C      -0.502647     -1.199209      0.955997
C      -0.562194      2.630866     -0.665964
O      -0.606181      1.328536     -0.603909
H      -0.418876     -1.151656     -1.203347
H       1.145227     -1.491602     -0.437561
H      -0.752911     -2.258206      1.011728
H       0.124468     -0.954593      1.814286
H      -1.426156     -0.625387      1.025454
H       0.516151      2.911515     -0.590605
