16
Extracted from Q-Chem output
C      -0.775220      0.759404      2.375092
C      -1.593787     -0.171384     -1.166190
C      -0.309166     -0.198953     -0.860013
C       0.590578     -1.222883     -0.201615
C       1.446626     -0.032093      0.297239
C       0.771612      0.857588     -0.775701
H      -1.269768     -0.230807      2.300292
H      -1.387804      1.368340      1.680015
H      -2.061698      0.729850     -1.545740
H      -2.218933     -1.049749     -1.053057
H       1.128340     -1.817112     -0.944558
H       0.150083     -1.895113      0.534882
H       2.530419     -0.135977      0.264805
H       1.153978      0.277384      1.309019
H       1.362492      0.896438     -1.694190
H       0.477747      1.870658     -0.500969
