17
smiles: [C:1]([C-:2]1[O+:3]=[C:4]2[C:5]([H:13])([H:14])[C:6]([H:15])([H:16])[C@@:7]12[H:17])([H:8])([H:9])[H:10].[H:11][H:12]
C        2.17221100       1.63550300      -0.28438400
C        0.89174400       0.94714600      -0.01229300
O        0.33325000       0.99386300       1.18276700
C       -0.18216200      -0.34072600       1.05818600
C       -1.67605000      -0.22743400       0.73207800
C       -1.27283000      -0.21229600      -0.74155500
C        0.28526200      -0.24324900      -0.50594500
H        2.19035400       2.60191600       0.22076200
H        3.01596600       1.04541700       0.09206100
H        2.31025100       1.78430500      -1.35499500
H       -0.64631300      -3.67637000       0.42653200
H       -0.35233200      -3.06280100       0.72900400
H       -2.13836400       0.68856800       1.09813800
H       -2.26706300      -1.08809200       1.03791400
H       -1.54263800      -1.13611400      -1.24784500
H       -1.60215400       0.63175900      -1.34273900
H        0.86046200      -0.91667400      -1.13175000
