11
Extracted from Q-Chem output
N       1.504132     -0.433029      0.169699
C       0.227551     -0.149380     -0.417499
C      -1.028934     -0.689665      0.275934
O      -1.597495      0.649147      0.316180
C      -0.465346      1.206794     -0.201099
O      -0.220088      2.356116     -0.346633
H       1.593358     -0.030592      1.093140
H       2.258438     -0.076991     -0.399113
H       0.251458     -0.396439     -1.479708
H      -1.662483     -1.366488     -0.294546
H      -0.860592     -1.069472      1.283645
