10
Extracted from Q-Chem output
O       2.101687     -0.465189     -0.306256
C       0.822306     -0.147748     -0.114215
C      -0.237197     -1.172104     -0.053494
N      -1.362724     -0.612307      0.135215
C      -1.071652      0.810420      0.205152
N       0.348180      1.022025      0.036360
H       2.612536      0.352049     -0.311379
H      -0.102487     -2.242904     -0.152510
H      -1.411568      1.198391      1.169420
H      -1.635853      1.329946     -0.574471
