10
Extracted from Q-Chem output
O       2.122164     -0.462146     -0.233909
C       0.820407     -0.177046     -0.143966
C      -0.203812     -1.102500      0.052836
N      -1.372902     -0.437019      0.051105
C      -0.973209      0.918072     -0.065929
N       0.351550      1.065474     -0.205424
H       2.593573      0.365817     -0.369943
H      -0.144264     -2.164378      0.225725
H      -1.427701      0.387323      1.028288
H      -1.702577      1.678983     -0.304963
