14
Extracted from Q-Chem output
O       1.944945     -1.180854     -0.548400
C       1.037874     -0.131326     -0.796985
C       0.337657      0.329467      0.459348
C      -0.844138      1.237205      0.354168
C      -0.784644     -0.506581      1.052670
O      -1.410948     -1.341632      0.180326
H       1.505090     -1.857857     -0.028929
H       0.317300     -0.409023     -1.584414
H       1.624721      0.687718     -1.214601
H       1.060497      0.635623      1.210983
H      -1.373500      1.256150     -0.592068
H      -0.826982      2.168184      0.909548
H      -1.544614      0.527254      1.247370
H      -1.051361     -1.298578     -0.715761
