14
Extracted from Q-Chem output
C      -1.426594     -0.956624     -0.459079
C      -0.501290      0.110877     -0.935492
C       0.336564      0.878822      0.849790
C       0.824823      0.255633     -0.614598
C       1.522439     -0.108535      0.787990
O       2.709778      0.257300      0.967513
H      -0.977026     -1.595697      0.297754
H      -2.363111     -0.541148     -0.082839
H      -1.683722     -1.573554     -1.325613
H      -0.904702      0.760882     -1.713244
H      -0.583896      0.540593      1.301678
H       0.521878      1.945297      0.866362
H       1.398513      1.002047     -1.152830
H       1.163362     -1.102629      1.116597
