19
smiles: [C:1]([C:2]([C@@:3]([O:4][H:19])([C:5]([C:6]([H:16])([H:17])[H:18])=[O:7])[H:13])([H:11])[H:12])([H:8])([H:9])[H:10].[H:14][H:15]
C        1.92171700       0.32805500       1.11353500
C        0.66059600       0.65000700       0.32517400
C        0.09971500      -0.58401200      -0.38579200
O       -0.18408600      -1.60149800       0.52855600
C       -1.14840200      -0.24851900      -1.19021300
C       -1.05584700       0.80532500      -2.25741100
O       -2.18025100      -0.82938300      -0.94820600
H        1.72439700      -0.44797700       1.85261900
H        2.71523100      -0.02911300       0.45246600
H        2.29230000       1.21284100       1.63334600
H       -0.11296800       1.03691600       0.99594900
H        0.87180900       1.42903300      -0.41310300
H        0.85134400      -0.93907400      -1.11026100
H       -0.72093600      -0.76665300       2.97138300
H       -0.94688600      -0.49451600       3.62657100
H       -0.08261700       0.79904000      -2.74923300
H       -1.85032000       0.65760400      -2.98578000
H       -1.18737400       1.78685000      -1.79493000
H       -1.12021700      -1.81499500       0.40401200
