15
smiles: [C:3]1([H:10])([H:11])[C@@:4]2([H:12])[C:5]([H:13])([H:14])[C@:6]1([H:15])[O:7]2.[O:1]([C:2][H:9])[H:8]
O        2.19433700      -1.58693900      -0.61323000
C        2.93482900      -0.66821700      -0.06051600
C       -0.09497900       1.02039400       0.57722600
C       -0.71576800       0.59042000      -0.76376800
C       -2.06142100       0.35106600      -0.05585400
C       -0.92232600      -0.26192200       0.77796800
O       -0.34044000      -0.79959000      -0.46153900
H        1.26973300      -1.31458300      -0.55870000
H        3.96240500      -1.08136100      -0.17814000
H       -0.45796600       1.94009400       1.03637800
H        0.98333500       0.89432600       0.65212000
H       -0.51788100       0.95819000      -1.76861200
H       -2.58523300       1.21553600       0.35242100
H       -2.72035600      -0.36617300      -0.54102100
H       -0.97360800      -0.92447100       1.63959800
