16
Extracted from Q-Chem output
C      -2.052370     -0.507828      0.129819
C      -1.465805      0.588236      0.993445
N      -0.188250      0.226859      1.601161
C       0.241510      0.992428      0.440341
C       0.940736      0.289456     -0.686895
C       2.193446     -0.426529     -0.443624
O       0.980189     -1.124029     -0.676538
H      -2.686995     -0.096989     -0.655801
H      -2.720806     -1.040072      0.814996
H      -1.356538     -1.240476     -0.291732
H      -0.836041      1.473292      0.126740
H       0.026437     -0.751182      1.395294
H       0.728997      1.925595      0.725987
H       0.790629      0.721591     -1.673413
H       2.930957     -0.506381     -1.235580
H       2.574611     -0.490558      0.571643
