13
Extracted from Q-Chem output
O      -1.741835      0.276310      1.127958
C      -1.297052     -0.918712      0.554829
C       0.186012     -0.841293      0.212678
O       0.937865     -0.222954      1.018791
C       1.640729      1.544569      0.261326
N       1.245600      1.767960     -0.811161
H      -1.023415      0.583790      1.692527
H      -1.412220     -1.768044      1.245732
H      -1.900036     -1.123643     -0.330884
H       0.594468     -1.716385     -0.317644
H       0.034991     -0.110587     -1.012696
H       2.180047      1.672212      1.174463
H       0.423381      0.683570     -1.122129
