14
Extracted from Q-Chem output
O       1.554188      1.396658     -0.828367
C       0.679667      0.810927      0.108667
C       1.040271     -0.680380      0.290229
C      -0.325642     -1.067192     -0.269058
C      -1.402564     -0.438715      0.554104
C      -0.680298      0.396011     -0.454373
H       0.637591      1.413154      1.025117
H       1.862426     -0.927087     -0.379721
H       1.272446     -1.024576      1.300297
H      -0.525602     -1.898689     -0.930708
H      -2.417851     -0.709166      0.292192
H      -1.244538     -0.268106      1.615460
H       1.241969      2.282197     -1.024254
H      -1.184186      0.879995     -1.281028
