14
Extracted from Q-Chem output
O       1.171604      1.399310     -1.109606
C       1.147932      0.959314      0.120949
C       1.035518     -0.498036      0.413395
C      -0.235865     -0.805965     -0.325268
C      -1.578787     -0.642373      0.322329
C      -1.051640      0.476987     -0.492669
H       1.458785      1.686189      0.869188
H       1.916054     -1.046363      0.059983
H       0.943327     -0.666313      1.488829
H      -0.196273     -1.482065     -1.173224
H      -2.357541     -1.266532     -0.104411
H      -1.654021     -0.524888      1.399039
H       0.321720      1.045705     -1.548392
H      -0.726796      1.383036      0.053627
