15
Extracted from Q-Chem output
C      -0.486662      1.321766      0.148462
C       0.051257     -0.137066     -0.102295
C      -1.081494     -1.144250      0.211083
N       0.541037     -0.295998     -1.398010
C       1.176138     -0.170658      0.861840
C       2.375296     -0.156160      0.182893
N       2.466549     -0.200437     -1.028788
H      -0.820633      1.466648      1.175522
H      -1.339026      1.457201     -0.520562
H       0.277634      2.057940     -0.096318
H      -1.933573     -0.954500     -0.440295
H      -0.729890     -2.159897      0.040679
H      -1.405388     -1.043290      1.248308
H      -0.031401      0.173206     -2.095770
H       1.029100     -0.107768      1.931337
