11
Extracted from Q-Chem output
O      -1.722838      2.135951      0.483366
C      -1.537790      1.083378      0.074751
C       0.216643      0.101238      0.002180
C      -0.174392     -1.148757      0.594209
O      -0.584937     -0.877597     -0.795317
C       1.529928      0.425096     -0.527583
O       2.499499      0.607782      0.168329
H      -1.515487     -0.251129     -0.648230
H       0.502922     -1.992334      0.664710
H      -1.029873     -1.176856      1.270145
H       1.564932      0.570834     -1.626399
