15
Extracted from Q-Chem output
C      -1.056662      1.234942     -0.856568
C      -0.315310      0.253279      0.010497
C      -1.046081     -0.510252      1.019528
C       0.974694     -0.270074     -0.586817
C       1.923386     -0.920966      0.390157
O       3.115551     -0.886661      0.262705
O      -0.245991      0.603037      1.390160
H      -0.428066      2.103129     -1.064863
H      -1.330561      0.777564     -1.809741
H      -1.963789      1.578573     -0.360236
H      -0.683292     -1.479274      1.352865
H       1.470273     -1.467237      1.239409
H      -2.118067     -0.364646      1.122081
H       0.742509     -1.013254     -1.358791
H       1.518594      0.536286     -1.083591
