9
Extracted from Q-Chem output
O      -1.930018      0.885976     -0.013100
C      -1.278338     -0.108168      0.737544
C       0.139197     -0.250433      0.393895
C       1.304276     -0.331395      0.119227
C       2.641171     -0.431722     -0.200449
N       3.757413     -0.513412     -0.465563
H      -1.486075      1.725578      0.125604
H      -1.791190     -1.047915      0.525876
H      -1.356437      0.071491      1.816898
