16
Extracted from Q-Chem output
C       0.031772     -1.274132     -0.311230
C      -1.064701     -1.111236      0.529644
C      -0.777338      1.269530      0.804891
C      -0.108993      1.527648     -0.364888
C       0.896188      0.662335     -0.821904
C       1.327694     -0.524770      0.017629
H      -0.089778     -0.328156     -1.244721
H       0.099785     -2.097259     -1.016583
H      -0.943710     -1.018750      1.596596
H      -2.039275     -1.449933      0.196565
H      -0.248618      0.886353      1.662958
H      -1.697212      1.795455      1.032762
H      -0.543630      2.204826     -1.093912
H       1.478326      0.911836     -1.702936
H       1.483272     -0.330017      1.079302
H       2.215529     -1.008630     -0.384232
