15
Extracted from Q-Chem output
C      -1.028463      0.718939      0.191422
O      -1.604648      0.543482     -1.215333
C      -0.352800      0.309509     -1.498984
C       0.136986     -0.940033     -0.887956
C      -0.281183     -0.553604      0.559086
C       1.019534      0.020746      1.221151
O       1.405804      1.099324      0.494505
H      -1.811286      1.206518      0.761935
H       0.024615      1.382089      0.172504
H       0.183902      0.968828     -2.179444
H       1.202250     -1.107765     -1.009622
H      -0.451930     -1.770673     -1.286224
H      -0.802886     -1.322095      1.126195
H       0.756940      0.264043      2.270975
H       1.773813     -0.782864      1.267392
