16
Extracted from Q-Chem output
C       1.920678      0.499626      0.180092
C       0.642876     -0.233745      0.562632
C      -0.465575     -0.242408     -0.509167
C      -1.621948     -1.132964     -0.103657
C      -1.227662      1.118493     -1.354127
C      -0.855121      1.645007     -0.291289
H       2.315602      0.122227     -0.765670
H       1.765539      1.572449      0.061191
H       2.687052      0.353201      0.942750
H       0.881246     -1.290883      0.721035
H       0.258426      0.125950      1.521708
H       0.004629     -0.603121     -1.421842
H      -2.124042     -0.734769      0.780138
H      -2.355873     -1.210192     -0.903596
H      -1.252882     -2.134250      0.137508
H      -0.578869      2.170591      0.598101
