14
Extracted from Q-Chem output
O       1.433756      2.332892      0.508691
C       0.823724      1.301758      0.306039
C       1.419780     -0.036680      0.555744
C       0.831579     -1.152952      0.141671
C      -0.496789     -1.126805     -0.553833
C      -1.285971      0.110314     -0.155101
N      -0.438646      1.286869     -0.214246
H       2.387841     -0.028740      1.038970
H      -0.331752     -1.141837     -1.637402
H       1.325001     -2.110886      0.270934
H      -1.074096     -2.021482     -0.312441
H      -1.690634     -0.028169      0.856238
H      -2.130293      0.257521     -0.829414
H      -0.871922      2.193499     -0.274596
