14
Extracted from Q-Chem output
O       0.755825      0.166432     -1.944455
C       0.814757     -0.029692      0.865740
C       0.261967      1.158700      0.162334
N      -0.289705      0.485110     -1.077354
C      -0.931021     -0.752431     -0.550687
C       0.036483     -1.158732      0.606994
O       0.003142     -2.304167      1.044741
H       1.387229     -0.241691     -1.306873
H       1.555884      0.045622      1.644860
H      -0.608454      1.662754      0.616183
H       0.974263      1.921546     -0.156133
H      -0.908780      1.077409     -1.625403
H      -1.003191     -1.493214     -1.342560
H      -1.922017     -0.484679     -0.175411
