14
Extracted from Q-Chem output
O       1.145263     -0.151494     -1.869474
C       0.761754      0.053302      0.816518
C       0.189151      1.202364      0.113851
N      -0.526920      0.607210     -0.960335
C      -1.022434     -0.679225     -0.549475
C       0.020445     -1.127873      0.485764
O       0.126259     -2.264407      0.908756
H       1.739370     -0.600324     -1.259600
H       1.495529      0.117900      1.605209
H      -0.558135      1.691903      0.771876
H       0.882539      1.966397     -0.233428
H      -1.009133      1.169315     -1.643443
H      -1.127274     -1.363744     -1.386364
H      -1.990031     -0.568355     -0.037877
