14
Extracted from Q-Chem output
C      -1.951030      0.590184     -0.431802
C      -1.270474     -0.577525     -1.148614
C      -0.584282      0.191828     -0.109991
C       0.500155      0.368845      0.613341
C       1.734156     -0.468933      0.472922
O       2.878314      0.309944      0.162785
H      -2.738374      0.358394      0.275952
H      -2.105591      1.502899     -0.995594
H       0.535297      1.169259      1.347758
H      -1.610070     -1.580062     -0.915583
H      -0.980789     -0.430250     -2.182849
H       1.566974     -1.248828     -0.279603
H       1.969499     -0.963141      1.418362
H       2.682309      0.818498     -0.626717
