14
Extracted from Q-Chem output
C      -1.859568      0.647212     -0.070249
C      -1.530200     -0.446246     -1.038519
C      -0.094850     -0.598122     -1.112972
C       0.607965     -0.426614     -0.050016
C       2.031511     -0.407836      0.388610
O       2.491156      0.898120      0.680740
H      -1.167580      1.477162     -0.009339
H      -2.903335      0.954701      0.006777
H      -0.228756     -0.100753      0.745158
H      -1.985622     -1.409976     -0.804778
H      -2.038507     -0.103086     -1.961416
H       2.640685     -0.885457     -0.385733
H       2.151213     -0.977792      1.310461
H       2.361501      1.436220     -0.103069
