14
Extracted from Q-Chem output
C       1.672664      0.742056      0.191922
C       0.744478     -0.448363      0.091186
O       0.071629     -0.800975      1.319352
C      -1.236169     -0.813145      0.610567
C      -0.602520     -0.224691     -0.537640
O      -0.930861      0.712655     -1.381169
H       1.140358      1.627164      0.545509
H       2.462749      0.518376      0.908152
H       2.149692      0.956967     -0.768209
H       1.269568     -1.327721     -0.301500
H      -2.149305     -0.177341      0.833156
H      -1.594249     -1.836929      0.594572
H      -2.851091     -0.431099     -0.649386
H      -0.144336      1.239326     -1.592591
