11
Extracted from Q-Chem output
C      -1.393095     -0.665327      1.252444
C      -0.149894      0.152769      1.059719
C       1.280075      0.191391     -1.117769
O       1.631763      1.107201     -3.089272
C       0.568201      0.163639     -0.018050
N       0.928261      1.153883     -2.116018
H      -2.242922     -0.011281      1.456144
H      -1.616217     -1.262327      0.370059
H      -1.277291     -1.332699      2.108512
H       0.173798      0.789248      1.879763
H       2.119240     -0.466454     -1.325518
