11
Extracted from Q-Chem output
C      -1.003819     -0.784147      0.618733
C       0.021355      0.327947      0.618119
C       1.223300      0.391034     -0.294347
O       0.204900     -0.156161     -1.798945
C       0.284956      1.517929     -0.265592
N       0.579080      1.073110     -1.565326
H      -1.852959     -0.456498      1.221530
H      -1.353124     -1.042409     -0.373565
H      -0.587234     -1.673981      1.095220
H       0.282006      0.640853      1.625461
H       2.218717      0.031270     -0.496141
