15
smiles: [C:1](=[C:2]([O:3][C:4](=[N:5]\[H:12])/[C:6](=[N:7]\[H:15])[H:13])[H:11])([H:8])[H:10].[H:9][H:14]
C        1.78769700      -1.07603000       0.34134300
C        1.15575000      -1.50796600      -0.73656100
O       -0.20137700      -1.58515400      -0.89747000
C       -1.00759400      -0.78738600      -0.12922800
N       -2.00356600      -1.22536300       0.49368000
C       -0.70930500       0.68406100      -0.17801400
N       -1.30139500       1.53832800       0.53064200
H        1.27012200      -0.72778500       1.22631800
H        0.61417800       4.21753700      -0.13970600
H        2.86787300      -1.06923000       0.34949200
H        1.66139600      -1.88774400      -1.61490600
H       -2.07422000      -2.23710400       0.42214000
H        0.04746000       1.00232500      -0.89409600
H        0.09332300       3.72478200       0.06095300
H       -1.97612700       1.06602300       1.13824400
