14
Extracted from Q-Chem output
C       2.197928      0.020577      0.286018
N       1.213767      0.367204     -0.705810
C      -0.106314      0.183938     -0.434089
N      -1.033055      0.779855     -1.347001
N      -2.200555      0.515937     -1.016672
C      -2.201907     -0.313261      0.186792
C      -0.767361     -0.483219      0.524067
H       2.165296     -1.053826      0.483607
H       3.190796      0.260940     -0.089857
H       2.042627      0.547013      1.236646
H       1.407537      1.143236     -1.314535
H      -2.736701     -1.238502     -0.054654
H      -2.798930      0.205946      0.944081
H      -0.368364     -1.030792      1.361413
