14
Extracted from Q-Chem output
C      -1.730256     -0.013545      0.252251
C      -0.485239     -0.531042      0.653262
C       0.485283     -1.094393     -0.360998
O       1.691641     -0.385019     -0.328688
C       1.364771      0.995884     -0.285610
O       0.399443      1.169291      0.691632
H      -2.517948      0.101262      0.985248
H      -0.822474      1.043043      0.306805
H      -2.039696     -0.174402     -0.774589
H      -0.284297     -0.755738      1.694209
H       0.701438     -2.137169     -0.120727
H       0.027102     -1.048572     -1.358912
H       2.289404      1.526568     -0.049854
H       0.991897      1.312934     -1.273839
