14
Extracted from Q-Chem output
O       1.518368      1.324711     -1.184001
C       0.765235      0.695819     -0.289400
C       1.217843     -0.454101      0.472835
C       0.260283     -1.655836      0.153281
C      -1.016637     -1.278534      0.134425
C      -1.466511      0.167203      0.350250
N      -0.493488      1.052136     -0.275066
H       1.105395     -0.266110      1.544413
H       2.268042     -0.670213      0.268952
H       2.430319      1.032974     -1.095851
H      -1.823605     -1.994309      0.004746
H      -1.517505      0.393225      1.421845
H      -2.444127      0.395329     -0.076784
H      -0.792593      1.737256     -0.949806
