14
smiles: [C:1]1([H:7])([H:8])[N:2]([H:9])[C:3]([H:10])=[C:4]1[H:11].[C:5](=[N:6][H:14])([H:12])[H:13]
C        1.59727600       0.59730500      -0.35700000
N        1.23084500      -0.65787200       0.36694300
C        0.75319300      -1.14016500      -0.88096600
C        1.13826300      -0.09484600      -1.61760500
C       -2.11742600       0.39388600       0.69861500
N       -1.52211400       0.01721000       1.74392700
H        2.66078600       0.82962000      -0.27581300
H        1.00330300       1.46052000      -0.04961400
H        0.54678000      -0.55629700       1.10689700
H        0.29934600      -2.10750900      -1.05743900
H        1.21574800       0.12048400      -2.67075300
H       -1.59809800       0.32537700      -0.25785900
H       -3.13576600       0.79495900       0.67308600
H       -2.11509700       0.13430200       2.56448700
