13
Extracted from Q-Chem output
N       2.506622     -0.061307      0.269893
C       1.243136      0.055347      0.243944
C       0.536248     -0.800606      1.177669
C      -1.318255     -0.474362     -0.354711
C      -0.836091      0.956121     -0.335169
O       0.583816      1.018093     -0.430343
H       2.969541      0.765765     -0.099710
H       0.803243     -1.845871      0.975820
H      -0.973059     -0.977931      0.598370
H      -2.405041     -0.534172     -0.277712
H      -0.974393     -1.026660     -1.227294
H      -1.158423      1.451756      0.584794
H      -1.215417      1.516830     -1.188920
