17
Extracted from Q-Chem output
C      -1.890318     -0.398111     -0.057740
C      -1.456416      0.903505     -0.678891
C      -0.449706     -0.024443     -0.093535
C       0.664678     -0.771359     -0.810992
C       1.628828     -0.540997      0.376041
C       1.430703      1.261700      1.168039
C       0.424338      0.257547      1.125218
H      -2.229645     -1.189505     -0.714986
H      -2.400146     -0.357037      0.897474
H      -1.499318      0.989661     -1.757820
H      -1.672510      1.820541     -0.144805
H       0.451837     -1.826900     -0.982828
H       1.007848     -0.324045     -1.744058
H       1.928366     -1.396135      0.972690
H       1.418074      1.795375      0.199303
H       2.537127      0.031113      0.150835
H       0.132764     -0.212253      2.063830
