17
Extracted from Q-Chem output
C      -2.063254     -0.355531      0.051375
C      -1.496602      0.825932     -0.685002
C      -0.589802     -0.236606     -0.174512
C       1.189336     -1.153378     -1.015304
C       1.669400     -0.675656      0.319693
C       1.618255      0.794335      0.626897
C       0.429004     -0.068247      0.913864
H      -2.622173     -1.089541     -0.514036
H      -2.405680     -0.213625      1.069610
H      -1.673812      0.883780     -1.751386
H      -1.460619      1.782733     -0.178683
H      -0.253371     -1.093791     -0.902769
H       1.293859     -0.353644     -1.765395
H       2.303509     -1.335290      0.898952
H       1.572706      1.488825     -0.204518
H       2.167512      1.144192      1.492061
H       0.138816     -0.240748      1.943398
