13
Extracted from Q-Chem output
C       1.487618     -0.414364      0.230672
C       0.495591      0.943172     -0.646514
C       0.097113     -0.393328     -0.899859
N      -1.151013     -0.666997     -0.351366
C      -1.504372      0.427007      0.398143
C      -0.550569      1.381496      0.280008
H       1.872254      0.398201      0.834630
H       1.073374     -1.171296      0.901445
H       2.292306     -0.806623     -0.381094
H       0.449134     -1.033296     -1.697496
H      -1.609462     -1.559073     -0.322673
H      -2.434579      0.427352      0.950049
H      -0.594758      2.354116      0.747901
