14
Extracted from Q-Chem output
C      -1.388386     -1.058686      0.088440
C      -0.352694      0.024743      0.009180
C      -0.565600      1.202694      0.911574
O      -1.266534      1.178433      1.883435
C       1.021771     -0.255100     -0.430057
O       0.107475      0.400915     -1.297118
N       2.171246      0.400990      0.051343
H      -1.453144     -1.441915      1.106628
H      -2.368616     -0.666918     -0.186805
H      -1.135030     -1.873134     -0.589150
H       1.229397     -1.283651     -0.715250
H      -0.035593      2.127226      0.603125
H       2.030585      1.383181      0.234726
H       2.952528      0.289807     -0.578028
