14
Extracted from Q-Chem output
C      -1.129008     -1.227229      0.161406
C      -0.374167      0.033418      0.171214
C      -0.977966      1.252516      0.755830
O      -2.148544      1.367001      1.015050
C       0.869695      0.316131     -0.561196
O       0.820456      1.576347     -0.886413
N       2.064746     -0.350276     -0.135584
H      -1.421383     -1.449807      1.192036
H      -2.071124     -1.113322     -0.385286
H      -0.544211     -2.050656     -0.244354
H       0.455571     -0.295554     -1.443098
H      -0.217493      2.014901      1.005813
H       2.350495     -0.025309      0.778302
H       2.811037     -0.154506     -0.789696
