13
Extracted from Q-Chem output
C       2.136668     -0.641480      0.139762
C       0.866989     -0.312729     -0.079950
N       0.339800      0.948196     -0.355241
C      -1.106115      0.852092     -0.480834
C      -1.379343     -0.547638      0.063840
O      -0.139831     -1.227869     -0.099011
H       2.393644     -1.658570      0.390829
H       0.713169      1.705084      0.188335
H       2.916251      0.098454      0.040571
H      -1.616711      1.626684      0.091757
H      -1.410449      0.941132     -1.527256
H      -2.143187     -1.094104     -0.486762
H      -1.644031     -0.526870      1.126407
