14
Extracted from Q-Chem output
C      -2.246571     -0.306447      0.146811
C      -1.050984      0.546204      0.562620
C       0.219650      0.193746      0.039392
O       0.302674      0.472770     -1.217060
O       1.255108     -0.235251      0.705943
C       2.513518     -0.267067      0.018804
H      -3.167630      0.274515      0.213156
H      -2.159585     -0.653165     -0.885114
H      -2.368345     -1.190083      0.782524
H      -0.689986      1.070094     -0.840375
H      -1.062060      0.833982      1.610971
H       3.265233     -0.424445      0.787236
H       2.525024     -1.088137     -0.696412
H       2.679410      0.673814     -0.504117
