13
Extracted from Q-Chem output
C      -1.098989      0.796285      0.279638
C      -1.125027     -0.703541      0.211650
C      -0.361244      0.441255     -0.982853
N       0.918079     -0.270707     -0.754598
C       1.412985     -0.144606      0.607991
C       0.355286     -1.138187      0.299173
H      -0.552526      1.294692      1.067613
H      -2.060783      1.263418      0.090522
H      -1.090086     -0.532909     -1.216982
H      -0.482241      1.027217     -1.890147
H       1.223979      0.742928      1.195277
H       2.416827     -0.536942      0.707635
H       0.589129     -2.195268      0.280281
