14
Extracted from Q-Chem output
C       1.796153      0.320170     -0.407974
C       0.660560     -0.682856     -0.288283
C       1.035113     -1.831721      0.176429
C      -0.749373     -0.291894     -0.676181
C      -1.595421      0.111153      0.531437
O      -0.990612      1.111131      1.323229
H       1.539081      1.223647      0.146273
H       2.737011     -0.075946     -0.024502
H       1.935085      0.578254     -1.459295
H      -0.684860      0.544025     -1.376557
H      -1.245395     -1.116065     -1.192838
H      -2.543180      0.524431      0.180928
H      -1.818864     -0.776556      1.133284
H      -0.314720      0.696334      1.863516
