14
Extracted from Q-Chem output
C       1.933385      0.447733     -0.484527
C       0.967827     -0.612434     -0.173336
C       0.377268     -1.649562      0.215657
C      -0.746740     -0.459348     -0.558181
C      -1.657323      0.044471      0.550174
O      -0.986959      0.909685      1.436691
H       1.634480      1.392312     -0.028501
H       2.902762      0.155060     -0.081406
H       2.038591      0.590114     -1.561538
H      -0.477284      0.375093     -1.215343
H      -1.227927     -1.194503     -1.197633
H      -2.471409      0.624406      0.108410
H      -2.091258     -0.809164      1.079205
H      -0.338054      0.382116      1.910993
