15
Extracted from Q-Chem output
C      -1.455243     -1.281188      0.333877
N      -0.346411     -0.401246      0.100087
C       0.990452     -0.865221     -0.151071
C       1.738180      0.409516     -0.397108
C       0.911799      1.443722     -0.311095
C      -0.457098      0.961201     -0.005382
N      -1.553527      1.596224      0.141104
H      -2.327321     -0.667801      0.553581
H      -1.673150     -1.900159     -0.543345
H      -1.259907     -1.941344      1.184019
H       1.400469     -1.418542      0.704321
H       2.797634      0.438310     -0.609992
H       1.152054      2.489189     -0.441511
H      -1.404748      2.591571      0.028261
H       1.036977     -1.533544     -1.022025
