15
Extracted from Q-Chem output
C      -1.373596     -1.205541      0.678936
N      -0.187234     -0.371677      0.705593
C       0.900685     -0.757494     -0.106467
C       1.793231      0.378203     -0.117084
C       1.066272      1.479043      0.189012
C      -0.275811      0.948973      0.266602
N      -1.088503      0.960374     -0.790482
H      -2.170993     -0.711569      1.231323
H      -1.718513     -1.403275     -0.339651
H      -1.138160     -2.149666      1.171577
H       1.253894     -1.783472     -0.059644
H       2.825653      0.334220     -0.431571
H       1.325891      2.516935      0.053874
H      -0.992117      1.815143     -1.330790
H      -0.157896     -0.093992     -1.276958
