14
Extracted from Q-Chem output
C       2.456708      0.201916     -0.305075
C       1.148621      0.731760      0.125271
C      -0.069413      0.402165      0.047076
C      -1.004816     -0.816957     -0.421229
C      -2.159828     -0.398123      0.336901
O      -1.139405      1.197587      0.624076
H       3.144683      0.119218      0.539439
H       2.388293     -0.787722     -0.778549
H       2.927017      0.877943     -1.023155
H      -1.144574     -0.793173     -1.499790
H      -0.550666     -1.750165     -0.098685
H      -3.008022      0.079655     -0.132329
H      -2.314929     -0.764539      1.343873
H      -0.756353      1.724521      1.353341
