11
Extracted from Q-Chem output
C      -1.536322      0.126394     -0.522610
C      -0.513443     -0.720243     -0.197070
O       0.258141     -1.430042     -0.911505
C       0.392851     -0.493479      0.972405
O       0.530328     -0.892281      2.090486
C       1.479460      0.321936      0.265320
O       1.114664      1.254299     -0.485093
H      -2.074609      0.624795      0.274381
H      -2.007272      0.053145     -1.496186
H       0.066104      1.108841     -0.638723
H       2.544126      0.234359      0.483469
