12
Extracted from Q-Chem output
O      -1.956493      0.699579     -0.404667
C      -1.257377     -0.377942      0.163926
C       0.212341     -0.252375     -0.179529
O       0.591103     -0.240458     -1.409649
C       1.158806      0.411314      0.682960
O       2.220145      0.757499      0.055402
H      -1.689678      0.745081     -1.328653
H      -1.624465     -1.338947     -0.212512
H      -1.415788     -0.342404      1.244612
H       0.789394     -1.106654      0.554859
H       1.901890      0.502516     -0.910464
H       1.079600      0.562988      1.753409
