13
Extracted from Q-Chem output
C      -1.804723     -0.135369     -0.151387
C      -0.438029      0.108884      0.374846
N       0.757099     -0.994239      0.218934
C       1.679724      0.133227     -0.021862
C       0.526652      1.142879      0.138590
O       0.493223      2.345721      0.047786
H      -2.318841     -0.952578      0.358270
H      -1.820599     -0.331198     -1.230966
H      -2.385675      0.771805      0.024804
H       0.167399     -0.771073      1.192574
H       0.621457     -1.701993     -0.490161
H       2.024210      0.117755     -1.056231
H       2.529781      0.182901      0.656834
