16
Extracted from Q-Chem output
C       1.172022     -0.816774     -0.234077
C       1.048543     -0.148736      1.490042
N       0.393163      1.114696      1.593402
C      -0.469960      1.266387      0.565072
O      -0.935286      2.274182      0.086795
C      -0.594271     -0.129055      0.009766
C      -1.172740     -0.178073     -1.381611
H       1.767622     -0.077412     -0.761978
H       0.621556     -1.404891     -0.979558
H       1.819392     -1.580918      0.191274
H       0.469003     -0.921274      2.010248
H       0.938441      1.913454      1.880248
H      -1.124551     -0.782729      0.698851
H      -0.548268      0.357949     -2.095943
H      -2.136329      0.334131     -1.345462
H      -1.332658     -1.199179     -1.725741
