13
Extracted from Q-Chem output
C       1.975728     -0.167402      0.517339
C       0.626377     -0.011422     -0.015894
C      -0.277011      1.130969      0.029021
C      -1.596287      0.692585      0.037737
C      -1.560528     -0.689625     -0.034761
N      -0.293378     -1.111936     -0.080938
H       2.617416     -0.816256     -0.075487
H       0.777735      0.276687     -1.115723
H       2.448790      0.772433      0.786702
H       0.081969      2.147597     -0.018996
H      -2.488043      1.297266      0.011478
H      -2.385857     -1.379451     -0.137770
H       0.013658     -2.062137      0.022069
