14
Extracted from Q-Chem output
C      -2.315361      0.637825      0.738382
C      -0.785494     -0.593106     -0.510911
O      -0.964592      0.339124      0.383890
C       0.652991     -0.764680     -0.754350
C       1.595647      0.429760     -0.718713
C       1.667992     -0.571275      0.362775
H      -2.982308      0.003323      0.156629
H      -2.433310      0.453970      1.806165
H      -2.494338      1.691711      0.525994
H       0.884288     -1.530814     -1.481332
H       1.141600      1.386059     -0.496139
H       2.375627      0.448649     -1.467853
H       2.500652     -1.261359      0.381332
H       1.264668     -0.302050      1.329699
