14
Extracted from Q-Chem output
C      -2.138094      0.114685      0.342468
C      -0.688216      0.520316      0.412107
O      -0.329323      1.514386      0.999110
C       0.282212     -0.372455     -0.280821
C       1.502381      0.269975     -0.896858
C       1.649848     -0.527958      0.342727
H      -2.461305      0.073918     -0.700759
H      -2.262829     -0.888810      0.756745
H      -2.753316      0.822139      0.893368
H      -0.135631     -1.235082     -0.784089
H       1.561253      1.346521     -0.805332
H       1.858834     -0.144861     -1.829939
H       2.108993     -1.505453      0.284346
H       1.805194      0.012679      1.266926
