13
Extracted from Q-Chem output
C      -1.250429     -0.136523      0.670702
C      -0.009641     -0.221361     -0.156269
O      -0.089693     -0.017307     -1.534244
C       0.717980      0.876526     -0.771352
O       0.358276      2.188379     -0.719162
C       1.352215     -1.429203      1.273931
O       0.747579     -1.409056      0.129926
H      -0.982568     -0.126518      1.726648
H      -1.817117      0.763320      0.434707
H      -1.885064     -0.999653      0.465069
H       1.786417      0.783088     -0.933759
H      -0.589826      2.265678     -0.584914
H       1.857627     -2.419282      1.261563
