13
Extracted from Q-Chem output
C      -1.375778     -0.049438      0.496979
C      -0.190250     -0.241292     -0.427030
O      -0.373976     -0.309417     -1.692910
C       0.846043      0.798389     -0.558562
O       0.621896      2.066707     -0.407767
C       1.588827     -0.984743      0.886649
O       0.606561     -1.441953      0.235815
H      -1.074218      0.137985      1.528851
H      -2.002476      0.764782      0.128180
H      -1.975073     -0.958827      0.466947
H       1.734351      0.563563     -1.122607
H      -0.162944      2.214446      0.135569
H       2.089407     -1.852434      1.367007
