14
smiles: [C:1](=[C:2]1[C-:3]=[N+:4]([H:12])[C:5](=[O:6])[C:7]1([H:13])[H:14])([H:8])[H:9].[H:10][H:11]
C       -1.53944900       0.32070600      -1.03348900
C       -0.36567500      -0.03202000      -0.52254900
C        0.57324800       0.99091300      -0.00280700
N        1.61012100       0.27026100       0.41384500
C        1.54980900      -1.14545500       0.26715000
O        2.41692900      -1.89353600       0.60385600
C        0.20912500      -1.41760300      -0.37383400
H       -2.24965300      -0.40224200      -1.42004100
H       -1.80645900       1.36975500      -1.06848300
H       -1.73332800       2.94143500       1.91863300
H       -1.19168700       2.73869300       1.44973100
H        2.43381400       0.68171600       0.82933300
H       -0.37633300      -2.07154300       0.27424000
H        0.35885200      -1.93856700      -1.32071600
