17
Extracted from Q-Chem output
C      -2.023258     -0.254775     -0.424596
O      -0.740293     -0.806388     -0.571621
C       0.354240     -0.074740     -0.054781
C       1.560699     -0.977288     -0.271168
C       0.178947      0.254687      1.427545
C       1.517984      1.740867     -1.483573
C       0.533442      1.226454     -0.833485
H      -2.095161      0.747802     -0.864426
H      -2.703416     -0.910812     -0.964932
H      -2.339999     -0.206021      0.622180
H       1.433003     -1.896693      0.301046
H       2.476385     -0.481956      0.054200
H       1.649386     -1.234440     -1.325976
H       1.097473      0.691425      1.819095
H      -0.039798     -0.661081      1.980381
H      -0.626557      0.969505      1.598969
H      -0.280375      1.964136     -0.875150
