13
Extracted from Q-Chem output
C      -1.024669     -0.881674     -0.167931
C      -0.282500      0.434899     -0.310472
O      -1.046613      1.529540      0.160830
C       1.000575      0.479649      0.521365
C       1.973024     -0.521129      0.097305
N       2.722927     -1.316159     -0.250872
H      -1.940882     -0.871331     -0.762562
H      -0.412753     -1.715898     -0.515010
H      -1.294452     -1.053363      0.876282
H      -0.013480      0.590714     -1.363648
H      -1.890073      1.537377     -0.295218
H       0.757607      0.317743      1.574136
H       1.451287      1.469634      0.435793
