13
Extracted from Q-Chem output
C      -1.032853     -1.091795     -0.436944
C      -0.094154      0.845369     -0.600399
O      -1.100688      1.646628     -0.227271
C       0.949062      0.650644      0.474540
C       1.881102     -0.431604      0.180618
N       2.604335     -1.292727     -0.041860
H      -1.982164     -1.101439     -0.969319
H      -0.425258     -1.971548     -0.638406
H      -1.183694     -0.943139      0.627819
H      -0.433581     -0.169278     -1.193086
H      -1.226005      1.671777      0.733585
H       0.531634      0.486788      1.482235
H       1.515039      1.586277      0.517013
