13
Extracted from Q-Chem output
O      -0.225141      1.216495      0.311642
C      -0.858444     -0.030957      0.241981
C      -1.240412     -0.570443     -1.099287
C       0.031580     -1.021624     -0.438344
O       1.163595     -0.333208     -0.920023
C       1.415655      0.787055     -0.195789
O       1.801362      0.747325      1.031972
H       0.621999      1.096959      1.190895
H      -1.433142     -0.295794      1.119684
H      -2.072391     -1.261016     -1.132799
H      -1.129167      0.076895     -1.959259
H       0.210976     -2.030019     -0.094847
H       1.750191      1.592375     -0.855217
