10
Extracted from Q-Chem output
C      -1.712651      0.101451      0.075836
C      -0.321157     -0.193371     -0.345499
N       0.197232     -0.967943     -1.137276
O       2.503703     -0.867599     -0.327481
C       2.004033      0.097400      0.215723
N       0.764919      0.580433      0.126074
H      -2.427397     -0.514495     -0.464072
H      -1.786864     -0.083482      1.147771
H      -1.903208      1.158195     -0.108452
H       2.591005      0.734928      0.901578
