9
Extracted from Q-Chem output
C      -1.325582      0.008253      0.064485
C      -0.568851     -1.137128      0.051102
C       0.617585     -1.518267      0.031701
C       1.481249     -0.495966      0.019040
C       1.488085      0.758239      0.020567
H      -1.825314      0.293201      0.986612
H      -1.855609      0.294665     -0.840121
H       0.043877      0.760268      0.043193
H       2.074042      1.654648      0.013025
