10
Extracted from Q-Chem output
O      -0.307761     -1.533029     -0.394839
C      -1.548275     -1.253180      0.034808
O      -1.913908     -0.234310      0.529731
C       0.787954      1.817693      0.641435
C       0.674053      0.604913      0.194249
C       0.713615     -0.601818     -0.293439
H      -2.180253     -2.132244     -0.148986
H       0.599112      2.669898     -0.001348
H       1.039035      2.011668      1.677995
H       1.626604     -1.016789     -0.697631
