10
Extracted from Q-Chem output
O      -0.255959     -1.388237     -0.432114
C      -1.221253     -0.762171      0.053845
O      -1.227542      0.389992      0.570304
C       0.170739      1.221554      0.642634
C       1.294149      0.539167      0.095482
C       1.201117     -0.634078     -0.408245
H      -2.193561     -1.269611      0.034707
H      -0.130258      2.120068      0.109231
H       0.215789      1.401321      1.714181
H       1.811606     -1.384899     -0.875489
