10
Extracted from Q-Chem output
O       0.094686     -1.459705     -1.116298
C       1.240111     -0.460435      1.113548
N       1.176539      0.749162      0.532125
N       0.035262      1.311005      0.050969
C      -0.886198      0.616524     -0.487752
C      -0.895882     -0.816176     -0.901539
N       1.303595     -1.470549      1.660585
H       1.782165      1.444546      0.935899
H      -1.759009      1.194276     -0.780991
H      -1.905013     -1.230133     -1.087159
