13
Extracted from Q-Chem output
C       1.416611      0.147853     -0.469334
C       0.363875      0.455203      0.795075
O       0.814492      1.351746      1.510305
N      -0.024603     -0.833243      1.125624
C      -1.018750     -0.965181      0.070731
C      -1.050875      0.515981     -0.157015
H       1.569459      1.142801     -0.874895
H       2.316410     -0.218907      0.014067
H       1.042580     -0.551617     -1.210193
H      -1.937092     -1.357395      0.517882
H      -0.738884     -1.630474     -0.750712
H      -1.772924      1.043128      0.456304
H      -0.925427      0.963382     -1.138047
