14
Extracted from Q-Chem output
C       2.142609      0.377300     -0.366127
C       0.944153      0.919626      0.347672
C      -0.242952      0.344306      0.304737
C      -0.875964     -0.868426     -0.328631
C      -2.139927     -0.357276      0.376881
O      -1.406403      0.761614      0.920797
H       2.948581      0.136765      0.331933
H       1.898183     -0.533210     -0.916795
H       2.540873      1.100334     -1.082763
H      -0.908849     -0.862236     -1.417218
H      -0.496820     -1.827171      0.022109
H      -2.949268     -0.021166     -0.273263
H      -2.536693     -0.992700      1.170232
H       1.044571      1.829863      0.929619
