14
Extracted from Q-Chem output
C       2.548882      0.406959     -0.108318
C       1.075775      0.368178     -0.113200
C      -0.043204     -0.098422     -0.398310
C      -1.302038     -0.849782     -0.556915
C      -2.026685     -0.083145      0.567072
O      -1.345576      1.127919      0.552774
H       2.917859      0.370697      0.916880
H       2.967232     -0.433575     -0.661193
H       2.904919      1.335706     -0.554245
H      -1.746285     -0.636156     -1.530031
H      -1.148873     -1.926552     -0.443941
H      -3.093914      0.025997      0.337399
H      -1.943814     -0.630826      1.521514
H       0.197818      1.030624      0.489697
