17
Extracted from Q-Chem output
C       1.895590     -0.597499     -0.369691
C       1.027113      0.094743      0.633953
C      -0.111698      1.239019     -0.112772
C      -1.750637      1.067104     -0.722045
O      -1.709812     -0.281669     -1.140838
C      -1.250458     -1.044933     -0.064206
C      -0.376087     -0.076292      0.745811
H       2.381217     -1.459183      0.095421
H       2.681126      0.065017     -0.737263
H       1.320456     -0.955012     -1.224091
H       1.530311      0.557020      1.475199
H      -0.052555      2.172667      0.427697
H       0.375665      1.216254     -1.074626
H      -2.343374      1.087089      0.220465
H      -0.708254     -1.921340     -0.432035
H      -2.070618     -1.387085      0.581697
H      -0.789533      0.212587      1.704766
