12
Extracted from Q-Chem output
N      -1.891083      0.286350     -0.386282
C      -0.646419      0.160947      0.007179
C       0.350338      1.174938      0.146294
N       1.548766      0.575692      0.015402
C       1.399080     -0.812994     -0.017360
C       0.079257     -1.068427      0.089049
H      -2.282307      1.180712     -0.086666
H      -2.133084     -1.557159     -0.032516
H       0.250323      2.241230     -0.003717
H       2.422636      1.052243      0.180388
H       2.265566     -1.447176      0.080550
H      -1.400875     -1.933354      0.033676
