12
smiles: [N:5](=[C:6]=[O:7])[H:12].[O:1]=[C:2]([C:3](=[C:4]([H:10])[H:11])[H:9])[H:8]
O        0.38329200      -0.43914100       1.08268500
C        0.34407100       0.40756200       0.23000200
C        1.14409500       1.64645000       0.25303600
C        1.04154900       2.53480600      -0.72669000
N       -1.45335100      -2.30123500      -0.01483900
C       -1.85554200      -3.42236500       0.18395200
O       -2.31644000      -4.48364000       0.26461300
H       -0.31993500       0.29949800      -0.65394100
H        1.80556100       1.78451400       1.10126000
H        0.36838500       2.36610100      -1.56165300
H        1.61429700       3.45364000      -0.73573000
H       -0.78841500      -1.81007400       0.55319700
