14
Extracted from Q-Chem output
O      -1.855137      0.417689      0.845822
C      -0.985185      0.248426     -0.202725
C       0.258485      1.096693     -0.234399
C       1.482231      0.250304      0.239987
C       1.426340     -1.093832      0.271038
C      -0.012394     -1.471829     -0.282020
H      -1.381993      0.732245      1.621636
H      -1.554535      0.153202     -1.118226
H       0.129263      1.996827      0.372017
H       0.443194      1.422623     -1.262008
H       2.393863      0.803545      0.436959
H       0.004975     -0.729722      0.559299
H       0.033727     -1.385095     -1.358322
H      -0.537724     -2.351996      0.073670
