13
Extracted from Q-Chem output
C      -1.725892      0.420394     -0.010173
N      -0.383157      0.109135     -0.441337
C       0.353785     -1.182368     -0.252582
C       1.619048     -0.348673      0.043596
C       0.740288      0.756639     -0.076403
O       0.995289      1.866501      0.508325
H      -1.900662      0.110277      1.025544
H      -1.872793      1.497055     -0.081127
H      -2.449346     -0.074533     -0.657691
H       0.360765     -1.800941     -1.150478
H      -0.050625     -1.738154      0.595856
H       1.722279      0.897126      0.978408
H       2.551422     -0.457569     -0.493688
