14
smiles: [H:9][H:14].[O:1]([C:2]1([H:8])[C:3]([H:10])=[C:4]([H:11])[C:5]([H:12])=[C:6]1[H:13])[H:7]
O       -1.96948100       0.51889100      -0.29796000
C       -0.72466800       0.15257100      -0.85265900
C        0.42150600       1.10430500      -0.60388200
C        1.48090100       0.41594300      -0.17671400
C        1.11733800      -1.01056000      -0.05025000
C       -0.15890700      -1.17293100      -0.40143500
H       -1.86336100       0.56547800       0.65510300
H       -0.89284700       0.09859900      -1.93668900
H       -0.89724700       0.34519600       2.83847100
H        0.35629600       2.16666900      -0.79238700
H        2.46092700       0.81712100       0.04484800
H        1.79785400      -1.78648200       0.27424200
H       -0.72810000      -2.09178200      -0.41384400
H       -0.48597200      -0.07451200       2.38123000
