14
Extracted from Q-Chem output
O      -2.118829      0.488047     -0.347772
C      -0.784841      0.163341     -0.585792
C       0.287034      1.103034     -0.073327
C       1.473466      0.363887     -0.065983
C       1.152164     -0.987855     -0.009477
C      -0.239293     -1.113290      0.017677
H      -2.244656      0.540307      0.604586
H      -0.676491      0.092831     -1.674856
H      -0.239760      0.601971      1.328200
H       0.226494      2.178015     -0.191422
H       2.468631      0.775357      0.028964
H       1.856501     -1.794951      0.138286
H      -0.777321     -2.053273     -0.015796
H      -0.457770     -0.315021      1.367301
