8
Extracted from Q-Chem output
N       0.234393      1.072336     -0.254274
C       1.373158      0.705276     -0.429121
N       0.732044     -1.610595      0.138366
N      -0.379566     -1.202152      0.252898
C      -1.124646     -0.211289      0.332552
H      -0.213232      1.972548     -0.263492
H       1.389071     -0.663574     -0.251037
H      -2.021845     -0.084103     -0.256674
