12
Extracted from Q-Chem output
O      -1.117162      2.239878     -0.000961
C      -0.643369      1.143635      0.004365
C      -1.124798     -0.203033     -0.569887
C      -0.016087     -0.857038      0.255608
C       1.294001     -0.341276     -0.192899
C       0.480286      0.511700      0.756663
H      -2.135309     -0.407396     -0.213820
H      -1.082115     -0.343106     -1.651030
H      -0.124152     -1.751550      0.850949
H       1.432657     -0.027039     -1.221667
H       2.172571     -0.780536      0.262151
H       0.863479      0.815761      1.720530
