12
Extracted from Q-Chem output
O      -1.285122      2.023720      0.289006
C      -0.666920      1.004947      0.129658
C      -1.199155     -0.239229     -0.541365
C       0.329350     -0.972242      0.697724
C       1.362684     -0.372297     -0.168902
C       0.585191      0.553516      0.733489
H      -2.269416     -0.384188     -0.394542
H      -0.876025     -0.457617     -1.554539
H      -0.768016     -1.254785      0.204731
H       1.290458     -0.284262     -1.245674
H       2.362944     -0.593938      0.187528
H       1.040365      1.065043      1.569462
