12
Extracted from Q-Chem output
O       0.212769     -1.498042     -1.269526
C       0.268268     -0.403738     -0.544651
C      -1.117756     -0.261841      0.464168
C      -0.460124      0.866987     -0.365444
O       0.594904      1.459904      0.366955
C       1.383546      0.255934      0.245903
H      -0.596439     -1.416517     -0.222335
H      -2.084587     -0.505226      0.029278
H      -1.062597     -0.187275      1.543300
H      -1.058823      1.499487     -1.007940
H       1.675187     -0.180564      1.201329
H       2.255645      0.420588     -0.391662
