19
Extracted from Q-Chem output
C       2.101060     -0.151945     -1.168271
O       0.704512     -0.281771     -1.124359
C       0.139477     -0.177867      0.184177
C       0.035158      1.485771      0.437194
C      -0.746575      1.936401     -0.650521
C      -1.196716     -0.612724      0.396549
C      -1.499443     -1.972632      0.909125
H       2.593343     -0.828588     -0.457549
H       2.441272      0.871850     -0.963373
H       2.409941     -0.416522     -2.178805
H       0.850973     -0.690700      0.857574
H      -0.355848      1.685139      1.429770
H       1.094226      1.750717      0.395502
H      -0.350394      1.929782     -1.654632
H      -1.738897      2.344320     -0.510270
H      -2.002533      0.091719      0.253533
H      -2.426870     -2.012086      1.483311
H      -1.584023     -2.703887      0.094325
H      -0.676584     -2.326736      1.540526
