14
Extracted from Q-Chem output
O      -2.521969      1.543145      0.441459
C      -1.945186      0.501275      0.587741
C      -1.029271     -0.123616     -0.430643
C       0.287177     -0.534185      0.187629
C       1.525551     -0.577718     -0.652748
C       1.361040      0.494094      0.384692
H       1.154535      1.501121      0.043847
H      -2.060467     -0.074516      1.532214
H      -0.883679      0.586355     -1.247132
H      -1.538457     -1.004787     -0.839395
H       0.207411     -1.295505      0.956639
H       1.436664     -0.293036     -1.693653
H       2.243772     -1.364470     -0.464408
H       1.967551      0.440454      1.278691
