14
Extracted from Q-Chem output
O      -1.040263      1.880925     -0.130475
C      -1.007010      0.686404      0.438198
C      -1.150285     -0.600625     -0.375882
C       0.285070     -0.961485     -0.068185
C       1.327296     -0.126518     -0.669320
C       0.744550      0.342555      0.653661
H       0.168425      1.487230      0.265515
H      -1.360961      0.577845      1.474427
H      -1.364076     -0.414499     -1.426732
H      -1.879334     -1.291932      0.043018
H       0.548558     -1.904415      0.389616
H       1.100041      0.456337     -1.555136
H       2.343658     -0.492582     -0.608917
H       1.298545      0.317804      1.581371
