11
Extracted from Q-Chem output
N       2.214403      0.087811     -0.031193
C       0.922579      0.108118     -0.036649
C      -0.124460      1.008137     -0.353151
N      -1.320984      0.355083     -0.124619
C      -1.117377     -0.870600      0.308765
N       0.209676     -1.046411      0.371296
H       0.685982     -1.880841      0.664146
H       2.583044      0.975507     -0.347737
H      -0.092916      2.017820     -0.716544
H      -2.230980      0.754868     -0.264078
H      -1.875694     -1.589981      0.559775
