11
Extracted from Q-Chem output
N       2.083477     -0.173457     -0.040418
C       0.786867      0.154963     -0.083203
C      -0.209952      1.060329     -0.378902
N      -1.409443      0.375688     -0.123798
C      -1.144309     -0.857305      0.307354
N       0.161781     -1.003867      0.353130
H       1.344000     -1.344421      0.462493
H       2.796417      0.533636     -0.077427
H      -0.203321      2.065706     -0.755337
H      -2.331568      0.756870     -0.229866
H      -1.892440     -1.584068      0.576798
