13
Extracted from Q-Chem output
C      -1.511485     -0.611879     -0.153330
C      -0.418768      0.275412     -0.146767
C       1.298836     -0.843618     -0.176947
C      -0.063834      1.504894      0.518850
O       0.036147      1.317663     -0.911532
H      -2.286655     -0.452478      0.582992
H      -1.756518     -1.107291     -1.083468
H      -0.067516     -0.984747      0.126901
H       2.009365     -0.176167      0.299309
H       1.466596     -0.927679     -1.247160
H       1.349811     -1.832607      0.296288
H      -0.864117      2.166999      0.833334
H       0.881155      1.605119      1.038711
