14
smiles: [C:1]([H:8])([H:9])([H:10])[H:13].[C@:2]12([C:3]([H:11])([H:12])[O:4]1)/[C:5](=[N:7]/[H:14])[O:6]2
C        0.77037900      -2.20964900      -0.20266100
C       -0.31334900       1.21662000      -0.16123800
C        1.08171700       1.50897200      -0.33005500
O        0.16711900       1.20540000      -1.42529800
C       -1.41785100       0.67326700       0.53804100
O       -1.42172600       2.02013500       0.30046300
N       -2.09630800      -0.22547400       1.05466200
H        1.58228600      -1.90012200       0.45362400
H        0.89392400      -3.26054300      -0.46033000
H        0.78705500      -1.60921300      -1.11088600
H        1.40358400       2.54407400      -0.29155000
H        1.83014300       0.74934400      -0.13524200
H       -0.18173100      -2.07145900       0.30740800
H       -2.96315200       0.13237700       1.44976900
