19
smiles: [C:1]([C:2]([C:3]([O:7][H:19])([H:13])[H:14])([H:11])[H:12])([H:8])([H:9])[H:10].[C:4]1([H:15])=[C:6]([H:18])[C:5]1([H:16])[H:17]
C       -1.98774600       0.73649500       0.32579400
C       -0.92504400       0.76867100      -0.76476300
C       -0.65645600      -0.60850700      -1.34905900
C        1.46983100      -1.04541900       1.76808700
C        2.38463800      -0.36293800       0.79416100
C        1.46402800       0.23836900       1.81491300
O        0.36659600      -0.60974300      -2.32536700
H       -2.93556800       0.34772300      -0.05471900
H       -1.67958800       0.09880200       1.15775500
H       -2.17586800       1.73380200       0.72552400
H        0.01329700       1.16985300      -0.37245200
H       -1.24154300       1.44291700      -1.56918300
H       -1.58633400      -1.02887400      -1.75759700
H       -0.31592000      -1.28777400      -0.56390600
H        1.10813000      -1.98985000       2.13365200
H        2.11565300      -0.32538800      -0.26084500
H        3.45920800      -0.36450600       0.97269200
H        1.09289000       1.15059700       2.24668300
H        0.10091600      -0.03496600      -3.04532400
