19
Extracted from Q-Chem output
C      -2.815979      0.347141     -0.350675
C      -1.381697      0.480752      0.168899
C      -0.474550     -0.515895     -0.479448
C       1.338509     -0.036126      1.180476
C       2.387127     -0.980509      0.656322
C       2.036508      0.292308     -0.025996
O       1.176299      0.119516     -1.212380
H      -2.877414      0.547343     -1.423067
H      -3.209949     -0.656081     -0.174726
H      -3.473088      1.053619      0.159162
H      -1.317150      0.349070      1.249352
H      -1.026933      1.497831     -0.020716
H      -0.710250     -0.703160     -1.526449
H      -0.251948     -1.419437      0.063993
H       1.480366      0.510247      2.107089
H       2.068528     -1.913341      0.190312
H       3.380239     -1.047082      1.096572
H       2.750597      1.088275     -0.208246
H       0.947202      0.998390     -1.541479
