16
smiles: [C:1]([N:2]([C:3](=[O:4])[H:11])[H:16])([H:8])([H:9])[H:10].[C:5]([C:6](=[O:7])[H:14])([H:12])([H:13])[H:15]
C        2.43193800      -0.56071500      -1.17141400
N        1.34429600       0.09614400      -0.48975500
C        1.43068900       1.30187000       0.11572500
O        0.52268900       1.85429900       0.68938800
C       -2.47275200       0.30789300       0.78416600
C       -2.28796300      -1.00181200       0.07862100
O       -1.25958200      -1.37019200      -0.41773100
H        2.67972800      -1.51688400      -0.70520700
H        2.19955000      -0.73356300      -2.22451500
H        3.31576700       0.07578300      -1.12256600
H        2.44117200       1.74555700       0.03256000
H       -1.54882300       0.88295800       0.77844600
H       -3.27270400       0.87250600       0.29833300
H       -3.19137700      -1.64673700       0.03402000
H       -2.79344600       0.12207400       1.81265500
H        0.44499400      -0.35478700      -0.44327600
