21
Extracted from Q-Chem output
C      -0.658100      1.655515      0.641892
C      -0.507219      0.192942      0.212599
C      -1.057540      0.031811     -1.205147
C      -1.305683     -0.705573      1.161761
C       0.966154     -0.183793      0.327899
C       1.980860      0.071331     -0.743849
C       1.592582     -1.337814     -0.392392
H      -0.302833      1.802080      1.665139
H      -0.079110      2.313439     -0.010431
H      -1.703770      1.971371      0.602359
H      -2.115437      0.303249     -1.224679
H      -0.542747      0.678609     -1.918261
H      -0.980043     -0.998189     -1.559384
H      -0.947386     -0.606399      2.189605
H      -2.367205     -0.444921      1.150370
H      -1.210835     -1.755640      0.875207
H       1.339118     -0.036389      1.338071
H       1.639679      0.456056     -1.696145
H       2.959521      0.425886     -0.448196
H       2.303662     -1.950377      0.146044
H       0.996331     -1.883191     -1.112461
