21
Extracted from Q-Chem output
C      -0.789103      1.682392      0.675266
C      -0.644506      0.269822      0.128780
C      -1.036337      0.199851     -1.339018
C      -1.216433     -0.780540      0.931183
C       1.059887     -0.066566      0.242701
C       1.949465      0.206966     -0.800055
C       1.122040     -1.559435      0.367738
H      -0.563249      1.723219      1.743139
H      -0.102840      2.358909      0.154885
H      -1.805369      2.058031      0.532684
H      -2.094125      0.442488     -1.469009
H      -0.447536      0.906743     -1.929894
H      -0.874415     -0.798809     -1.752786
H      -0.024801     -1.643327      0.951645
H      -1.388274     -0.596252      1.988311
H      -1.902491     -1.490397      0.480148
H       1.343710      0.419528      1.176675
H       1.829558     -0.287650     -1.756907
H       2.745015      0.939813     -0.725408
H       1.953953     -1.973576      0.934488
H       0.956323     -2.109081     -0.559303
