15
Extracted from Q-Chem output
C       2.166743      0.230438      0.002132
N       0.736691     -0.022036     -0.002482
C       0.220198     -1.224318     -0.023734
C      -1.261192     -1.085939     -0.022952
C      -1.482206      0.430083      0.003569
N      -2.660702      0.933715      0.011528
C      -0.171405      0.998364      0.014847
H       2.700362     -0.716570     -0.010362
H       2.430085      0.815034     -0.878024
H       2.428790      0.790393      0.898531
H       0.837895     -2.106681     -0.038645
H      -1.725536     -1.557454      0.846937
H      -1.723289     -1.527196     -0.909750
H      -2.612149      1.949479      0.029922
H       0.155064      2.023771      0.033016
