15
Extracted from Q-Chem output
C       2.190133      0.195834     -0.077019
N       0.790884     -0.062477      0.166073
C       0.232255     -1.315175      0.242335
C      -1.115427     -1.223778      0.207049
C      -1.474218      0.191961      0.082249
N      -2.785329      0.668163      0.073169
C      -0.203136      0.860697      0.068947
H       2.784451     -0.581558      0.401634
H       2.417435      0.208571     -1.146263
H       2.467847      1.155854      0.356499
H       0.867520     -2.186270      0.297411
H      -1.830454     -2.026839      0.276697
H      -1.550073      0.445965     -1.053779
H      -2.754484      1.685847      0.098305
H       0.001946      1.914287     -0.038775
