10
Extracted from Q-Chem output
O       1.864806     -0.461412     -0.162607
C       1.037141     -1.332110      0.549676
N       1.289144      0.871523     -0.144053
N       0.078389      1.247404      0.144582
C      -1.042324      0.599801      0.003976
C      -1.131335     -0.796410     -0.234629
N      -0.093736     -1.520397      0.020359
H       1.961972      1.419705      0.374298
H      -1.932112      1.210511      0.096500
H      -2.027355     -1.259233     -0.632363
