12
Extracted from Q-Chem output
C      -1.469325     -0.406832     -0.389445
C      -0.523681     -0.658329      0.751956
O      -0.644162     -1.579145      1.520158
C       0.615307      0.303751      0.942829
C       1.565627      0.555046     -0.144547
O       0.593802      1.513884      0.207901
H      -0.933619     -0.223775     -1.322054
H      -2.140023     -1.255709     -0.497485
H      -2.045321      0.497252     -0.179956
H       0.966527      0.374229      1.968443
H       1.423883      0.073010     -1.108065
H       2.590984      0.806618      0.108083
