12
Extracted from Q-Chem output
C      -1.654755     -0.306810     -0.213214
C      -0.446216     -0.825586      0.512900
O      -0.285064     -1.991909      0.798215
C       0.580704      0.114694      0.999338
C       1.751298      0.357826      0.155173
O       0.833592      1.448628     -0.076971
H      -1.350110      0.193782     -1.134425
H      -2.324625     -1.134499     -0.436455
H      -2.170575      0.433675      0.401210
H       0.455079      1.468206      0.992730
H       1.857263     -0.230805     -0.752247
H       2.695707      0.655459      0.602661
