11
Extracted from Q-Chem output
C       1.885369      2.180350     -1.607136
C       1.113572      1.363330     -1.194946
C       0.153730      0.391433     -0.763719
N       0.267215     -0.207318      0.343274
C      -0.749377     -1.191876      0.651694
C      -1.376711     -0.907339      1.946126
N      -1.890130     -0.699397      2.949249
H       2.582973      2.906287     -1.954591
H      -0.675684      0.202350     -1.455857
H      -0.267801     -2.170412      0.727910
H      -1.540649     -1.263557     -0.106558
