14
Extracted from Q-Chem output
C      -0.960769     -0.996383     -0.790354
C      -1.680763      0.298471     -0.430785
C      -0.261442      0.122351     -0.099546
C       0.676117      0.304647      1.050958
C       1.762076      0.069549      0.027428
O       0.818203      0.835460     -0.918783
H      -0.777198     -1.177563     -1.841156
H      -1.169275     -1.880908     -0.202175
H      -2.381386      0.302804      0.394461
H      -1.934900      0.959222     -1.250031
H       0.593928     -0.260196      1.974865
H       0.767028      1.542539     -0.072636
H       2.725860      0.572329      0.098614
H       1.853852     -0.913990     -0.449882
