12
Extracted from Q-Chem output
C      -1.966241      0.037883     -0.087874
C      -0.550442      0.523045     -0.152164
O      -0.230648      1.651295     -0.422920
C       0.550391     -0.522382      0.153785
O       0.230440     -1.650132      0.426410
C       1.966320     -0.038076      0.087214
H      -2.644700      0.855900     -0.316686
H      -2.108529     -0.784160     -0.791596
H      -2.174975     -0.367581      0.903611
H       2.644415     -0.855768      0.318261
H       2.174576      0.363610     -0.905928
H       2.109393      0.786367      0.787887
