13
Extracted from Q-Chem output
O      -0.085934      2.717657      2.212911
C      -0.563474      2.092118      1.361942
C       2.053529     -1.289404     -0.996281
O       1.045879     -0.902084     -0.279433
C      -0.203071     -0.774149     -0.578058
C      -1.086668     -0.155147      0.445099
C      -1.103793      1.368799      0.416430
H       2.992085     -1.343991     -0.474445
H       1.896755     -1.563614     -2.030657
H      -0.501276     -0.964150     -1.603832
H      -0.780709     -0.492831      1.437752
H      -2.106453     -0.518014      0.297282
H      -1.529103      1.900717     -0.423621
