13
Extracted from Q-Chem output
O      -2.743409     -0.763658     -1.010021
C      -1.797466     -0.404208     -0.407870
C      -0.437275      1.155104      0.832163
C       0.373199      0.186436      0.098218
C       1.833424      0.194049      0.217340
O       1.231234      0.557639     -1.004750
C      -0.459299     -1.049826     -0.137430
H      -0.364351      2.147480      0.356724
H      -1.794160      0.636759      0.176307
H       2.320105      1.000006      0.761012
H       2.363050     -0.755633      0.232060
H      -0.125579     -1.678925     -0.960939
H      -0.552730     -1.647522      0.772695
