19
Extracted from Q-Chem output
C      -2.875971      0.044659      0.159376
C      -0.828436     -0.811025     -0.073077
C      -0.107954      0.096881     -1.049563
C       0.994962      0.029756      0.011596
C       2.278685     -0.711270     -0.121214
C       2.279303      0.779476      0.095049
C      -0.065274     -0.214362      1.090919
H      -3.651062     -0.144781     -0.583003
H      -2.457704      1.036860      0.044540
H      -3.236750     -0.125468      1.171523
H      -2.132937     -0.914367     -0.055252
H       0.080679     -0.295660     -2.049840
H      -0.480712      1.125298     -1.118330
H       2.548425     -1.083442     -1.101612
H       2.582231     -1.345984      0.701856
H       2.546678      1.416229     -0.738994
H       2.583353      1.154037      1.064494
H      -0.432152      0.750022      1.461863
H       0.161294     -0.873248      1.930422
