13
Extracted from Q-Chem output
C       2.151263      0.550367      0.128042
C       0.776862     -0.015948      0.053576
C       0.447791     -1.324425      0.077655
N      -1.098154     -1.181355     -0.032810
C      -1.361494      0.249989     -0.100366
O      -2.643459      0.609209     -0.197260
N      -0.316824      0.933363     -0.053989
H       2.256562      1.214903      0.989260
H       2.386744      1.133874     -0.765637
H       2.872759     -0.259967      0.219567
H      -1.421570     -1.677928     -0.860758
H      -1.532753     -1.621576      0.775929
H      -2.677742      1.571689     -0.229757
