13
Extracted from Q-Chem output
C       2.105743      0.514600      0.053334
C       0.704413      0.008843      0.087928
C       0.364165     -1.309884      0.255918
N      -1.194605     -1.113703      0.070862
C      -1.421876      0.244119     -0.015482
O      -2.679891      0.682069     -0.102731
N      -0.343504      0.928953     -0.020793
H       2.274630      1.235881      0.855559
H       2.310282      1.020881     -0.892261
H       2.803174     -0.312970      0.170795
H      -0.572701     -1.589711     -0.759572
H      -1.861189     -1.770364      0.448719
H      -2.648653      1.643479     -0.148823
