11
Extracted from Q-Chem output
C      -1.600398     -0.228323     -0.074743
C      -0.115157     -0.035426      0.193809
O       0.205589      0.676181      1.153706
C       0.811551     -0.543319     -0.721813
O       2.280207      0.842185      0.715544
H      -2.121065     -0.417500      0.862056
H      -1.780148     -1.045657     -0.769726
H      -1.995421      0.691440     -0.507939
H       1.602398      0.140355     -0.995927
H       0.589943     -1.398984     -1.347563
H       2.069836      1.342314      1.509446
