17
smiles: [C:1](/[C:2](=[C:6](\[C:5]([C:3](=[O:4])[H:12])([H:14])[H:15])[H:16])[H:11])([H:8])([H:9])[H:10].[O:7]([H:13])[H:17]
C       -1.81574000       0.38200500      -0.13888500
C       -1.26495700       0.81239000       1.18294800
C        1.32349000      -0.96756600       0.52279700
O        1.28403100      -1.59071600      -0.50204600
C        1.17194000       0.53113900       0.61776100
C        0.01695000       0.88753100       1.52282900
O        0.51309900      -0.53285900      -2.59856400
H       -2.43928100       1.16998800      -0.56876900
H       -2.45623300      -0.49493600      -0.01511000
H       -1.03930900       0.12446500      -0.85810800
H       -1.99939800       1.09044100       1.93416100
H        1.45479200      -1.48886000       1.49413800
H        0.91224600      -1.10424800      -1.94130700
H        2.10015800       0.93500100       1.03198100
H        1.05176700       0.92931200      -0.39036100
H        0.26464600       1.20352300       2.53070700
H        0.19149000      -1.11951800      -3.28432900
