8
Extracted from Q-Chem output
O      -1.396028      1.840783     -0.986567
C      -0.558639      1.681595     -0.153377
C       0.499505     -1.723715      0.184592
C       0.457797     -0.442476     -0.041244
N       0.487897      0.750710     -0.258305
H      -0.469266      2.302176      0.752460
H       0.241290     -2.417175     -0.602422
H       0.785579     -2.092701      1.158817
