10
Extracted from Q-Chem output
O      -0.688957      2.280635     -0.557414
C      -0.146275      1.233404     -0.384259
C      -0.732302      0.016484      0.344163
C       0.346820     -1.018935      0.218356
O       1.466941     -0.330726     -0.509859
C       1.290589      0.879950     -0.871821
H      -1.668706     -0.266158     -0.134700
H      -0.947334      0.296666      1.375053
H       0.092568     -1.878232     -0.397589
H       0.781598     -1.355807      1.156116
