10
Extracted from Q-Chem output
O      -0.327085      2.345449     -0.229901
C      -0.055541      1.193190     -0.121054
C      -0.894639     -0.036816      0.226752
C       0.324248     -0.910921      0.015253
O       0.883522     -0.530070     -1.212363
C       1.337524      0.513004     -0.354531
H      -1.725296     -0.259328     -0.441973
H      -1.246148      0.018091      1.257610
H       0.443020     -1.966036      0.239730
H       1.176183     -0.422597      0.753801
