17
Extracted from Q-Chem output
C       3.188899     -0.180674     -0.140165
O       1.860813      0.084009     -0.500619
C       0.937606     -0.418541      0.442038
C      -0.451217     -0.179572     -0.040534
C      -3.092137      0.350806     -0.852890
C      -1.287597      0.609987      0.626417
O      -2.563407      0.913309      0.327389
H       3.450656      0.293545      0.815751
H       3.830039      0.225538     -0.921491
H       3.376112     -1.259757     -0.051220
H       1.089788      0.064480      1.419040
H       1.117151     -1.495870      0.582759
H      -0.740579     -0.669239     -0.962205
H      -2.520274      0.669650     -1.729847
H      -3.090185     -0.742846     -0.801350
H      -4.115717      0.709487     -0.934814
H      -0.985212      1.108650      1.541594
