16
Extracted from Q-Chem output
C       1.981173     -0.239299     -0.352826
C       0.694590     -0.462234      0.433879
C      -0.576413     -0.170618     -0.365570
C      -1.842463     -0.591497      0.404082
C      -0.853842      1.250345     -0.779948
O      -0.190176      2.063734      0.007448
H       2.092732      0.804283     -0.651231
H       2.856058     -0.508163      0.241818
H       1.997381     -0.848466     -1.260077
H       0.652525     -1.503677      0.768234
H       0.702169      0.147981      1.341132
H      -0.564949     -0.745983     -1.298400
H      -1.905209     -0.062895      1.358133
H      -2.746491     -0.375066     -0.165834
H      -1.809351     -1.662102      0.610622
H      -0.417125      2.966203     -0.238849
