16
Extracted from Q-Chem output
C       2.030168     -0.398566     -0.524333
C       0.793159     -0.605160      0.338299
C      -0.492958     -0.014848     -0.258485
C      -1.757604     -0.487777      0.448227
C      -0.392960      1.477378     -0.335600
O      -1.444966      2.178669     -0.036578
H       2.214671      0.661286     -0.703135
H       2.914589     -0.822155     -0.045556
H       1.915153     -0.884978     -1.496360
H       0.628197     -1.674219      0.499501
H       0.950708     -0.170349      1.330823
H      -0.531013     -0.313257     -1.318123
H      -1.719224     -0.251194      1.513688
H      -2.648921     -0.013959      0.037328
H      -1.863982     -1.568462      0.344716
H      -0.476635      2.729124     -0.369146
