13
Extracted from Q-Chem output
C      -1.582043      0.047703      0.128370
C      -0.358860     -0.803861      0.445328
C       0.443624     -0.315701     -0.786784
C       1.584496      0.060445      0.139726
N       0.399780      0.408092      1.008500
C      -0.363577      0.886785     -0.236469
H      -2.215043     -0.284959     -0.694604
H      -2.163859      0.390972      0.984448
H      -0.289719     -1.773119      0.939273
H       0.441078     -0.725609     -1.799607
H       2.200533      0.923820     -0.123205
H       2.203032     -0.742516      0.547996
H      -0.299442      1.927950     -0.552971
