13
smiles: [C:1](=[N+:2]1[C:3]([H:10])([H:11])[C:4]([O-:5])=[C:6]1[H:13])([H:7])[H:9].[H:8][H:12]
C       -1.46125700       0.08720000      -0.85930800
N       -0.22383200       0.12006600      -0.50061300
C        0.50676700       1.20670900       0.20134000
C        1.72512500       0.24263000       0.09836700
O        2.86740500       0.34243500       0.46324900
C        0.87641800      -0.69032500      -0.56628600
H       -1.84584400      -0.78711300      -1.36330100
H       -1.31546200      -1.59793500       1.75050400
H       -2.08772300       0.93792700      -0.64188300
H        0.54920100       2.12047200      -0.39097200
H        0.10717700       1.38971400       1.19863700
H       -0.59329600      -1.73130700       1.62731700
H        0.92160100      -1.67333800      -1.00745600
