11
Extracted from Q-Chem output
O      -1.300359      1.978533      0.147046
C      -0.573255      1.033202      0.098398
C      -0.801137     -0.362050     -0.427654
C       0.533326     -1.063982     -0.162873
C       1.483116     -0.070030      0.469934
N       0.775137      1.040959      0.568084
H      -1.066235     -0.296106     -1.483368
H      -1.653289     -0.801619      0.090661
H       0.450023     -1.916983      0.514617
H       1.008125     -1.456954     -1.064372
H       1.145313      1.894554      0.962858
