11
Extracted from Q-Chem output
O      -1.283588      2.009297     -0.042446
C      -0.578308      1.040490      0.046877
C      -0.903840     -0.406230     -0.312750
C       0.387355     -1.102908     -0.001618
C       1.328741     -0.235559      0.551741
N       0.730805      1.014596      0.499689
H      -1.231356     -0.484906     -1.349893
H      -1.722421     -0.766969      0.314108
H       0.547853     -2.171940     -0.056153
H       1.564610     -0.748330     -0.588977
H       1.195137      1.857606      0.789450
