16
smiles: [C:1]([C:2]([C:3](=[C:4]([H:13])[H:14])[H:12])([H:10])[H:11])([H:7])([H:8])[H:9].[C:5](=[O:6])([H:15])[H:16]
C        2.38394700       0.13329400      -0.33806800
C        0.93967400       0.12700500       0.16054000
C       -0.01709300      -0.39264400      -0.86841400
C       -0.80055500      -1.44957800      -0.72029200
C       -2.48531200       1.03100800       0.68839400
O       -1.83915200       1.76047100       1.38140900
H        2.71422500      -0.87804900      -0.58303900
H        2.48543700       0.74260900      -1.23922400
H        3.06016000       0.53833500       0.41670700
H        0.85920000      -0.47397600       1.07021800
H        0.65105100       1.14824200       0.43194000
H       -0.04189800       0.15305400      -1.81036600
H       -0.80549500      -2.02517500       0.19991500
H       -1.46726000      -1.77748600      -1.50860600
H       -2.90340000       0.07961300       1.06969600
H       -2.69924700       1.26725500      -0.37170500
