14
Extracted from Q-Chem output
O      -1.292803     -0.480816      1.466278
C      -1.536456     -0.414691      0.082019
C       1.512004      2.162502      0.991024
O       0.838770      1.148798      0.541727
C       1.397593      0.257230     -0.440810
N       0.815788     -0.696147     -0.953894
C      -0.530583     -1.191402     -0.758255
H      -0.663042      0.207116      1.692039
H      -2.509808     -0.883975     -0.083437
H       2.504596      2.149244      0.461754
H      -1.613938      0.621656     -0.264921
H       2.425764      0.550212     -0.666225
H      -0.941225     -1.327748     -1.763010
H      -0.421965     -2.194909     -0.337483
