14
Extracted from Q-Chem output
O      -1.115355     -0.601364      1.471016
C      -1.165246     -0.084006      0.192641
C       0.184428      1.699904      0.195099
O       1.190010      0.973367      0.779167
C       1.718357     -0.080026      0.063303
N       1.095797     -0.871738     -0.677371
C      -0.350779     -0.831880     -0.835621
H      -0.215393     -0.538133      1.809204
H      -2.210925     -0.004329     -0.108399
H       0.292342      1.613196     -0.899654
H      -0.960680      1.149015      0.388904
H       2.785836     -0.182298      0.236621
H      -0.579427     -0.460046     -1.837423
H      -0.684271     -1.874590     -0.810678
