16
Extracted from Q-Chem output
C       1.469649     -0.828163     -0.219014
C       0.412281     -0.182242      0.656838
C       0.249666      1.339337      0.421401
C      -0.937222      1.040017     -0.520442
C      -1.038789     -0.342704      0.122949
O      -1.337514     -1.382105     -0.774921
H       1.418851     -1.917532     -0.165411
H       1.346577     -0.550811     -1.267719
H       2.467919     -0.520215      0.099729
H       0.555474     -0.483221      1.697552
H      -0.061066      1.868837      1.322559
H       1.107081      1.856777     -0.010015
H      -1.814553      1.684468     -0.477749
H      -0.617776      0.945425     -1.558952
H      -1.751622     -0.333641      0.956201
H      -1.468956     -2.194227     -0.283007
