16
Extracted from Q-Chem output
C       1.439302     -0.991568      0.076367
C       0.437211     -0.049909      0.710691
C       0.305366      1.408183      0.176860
C      -1.177149      1.102176     -0.052121
C      -1.047312     -0.214440      0.461995
O      -1.355047     -0.997589     -1.253877
H       1.259955     -2.025069      0.379952
H       1.388789     -0.940815     -1.013000
H       2.455825     -0.722495      0.369500
H       0.575433     -0.042901      1.797364
H       0.523557      2.163016      0.934124
H       0.896296      1.631613     -0.714697
H      -2.030289      1.763951      0.028696
H      -1.258570      0.257685     -1.151652
H      -1.736068     -0.883628      0.961244
H      -0.670739     -1.511837     -1.698021
