14
Extracted from Q-Chem output
C      -1.892828      0.027966      0.480509
C      -0.425374      0.119924      0.303134
C       0.265799      0.847944     -0.768746
C       1.252755     -0.275509     -0.965344
C       1.664188     -0.588401      0.401741
O       0.326062     -0.462482      1.189477
H      -2.162100     -0.634778      1.299974
H      -2.314054      1.024554      0.640498
H      -2.327985     -0.354665     -0.445484
H       0.715617      1.786880     -0.405833
H      -0.387200      1.069138     -1.610864
H       0.980285     -1.096778     -1.618961
H       2.310828      0.143353      0.895432
H       1.997881     -1.602212      0.605835
