21
smiles: [C:1]([C:2](=[C:3]([H:13])[H:14])[H:11])([H:8])([H:9])[H:10].[O:4]([C:5]([C:6]([C:7]([H:19])([H:20])[H:21])([H:17])[H:18])([H:15])[H:16])[H:12]
C       -1.97090400      -0.33786800      -1.06078300
C       -2.20008900      -0.20578300       0.41111100
C       -2.35436000       0.93914100       1.05764200
O        0.91330800       1.38419500       1.39968900
C        1.37558700       0.92165300       0.14570500
C        1.67579700      -0.56830700       0.13182400
C        2.22284500      -1.03688600      -1.21010800
H       -1.93828800       0.63746300      -1.54828800
H       -1.02935400      -0.85483300      -1.26354300
H       -2.76380300      -0.92791200      -1.52776900
H       -2.23874900      -1.13510000       0.97498300
H        0.10046300       0.92246200       1.61323600
H       -2.51764000       0.96869300       2.12810500
H       -2.32357300       1.89156600       0.53809900
H        2.28641400       1.48888600      -0.06029800
H        0.65639100       1.16532800      -0.64905300
H        0.75822700      -1.11961600       0.36871900
H        2.38748400      -0.78744300       0.93229600
H        3.15841400      -0.52790600      -1.45390200
H        1.51628100      -0.83520500      -2.01897200
H        2.42169400      -2.10938000      -1.20450400
