21
Extracted from Q-Chem output
C      -2.827444     -0.158264     -0.885824
C      -2.329734     -0.108558      0.542445
C      -1.595040      0.994040      1.022417
O       0.033373      0.065266      1.079071
C       1.009487      0.394662      0.121911
C       2.026507     -0.723247     -0.033775
C       3.129087     -0.367447     -1.021814
H      -2.165432      0.397243     -1.554998
H      -2.873129     -1.183878     -1.257372
H      -3.830082      0.267654     -0.991281
H      -2.932079     -0.634656      1.277506
H      -0.992699     -0.535801      0.678608
H      -1.594698      1.254360      2.072960
H      -1.298509      1.794492      0.350320
H       1.516937      1.314528      0.436627
H       0.538592      0.601265     -0.855166
H       1.503614     -1.627867     -0.358241
H       2.449998     -0.943295      0.949619
H       3.682973      0.515735     -0.693887
H       2.721438     -0.152834     -2.012970
H       3.844098     -1.184236     -1.129645
