14
Extracted from Q-Chem output
O       1.685752      1.840858     -0.526720
N       1.727846      0.521142      0.046330
C       0.511905     -0.022822     -0.130890
C      -0.071460     -1.398707     -0.226806
C      -1.484743     -0.744711     -0.129198
C      -0.799194      0.609508      0.126147
O      -0.269609      0.558614      1.441629
H       2.600689      2.117949     -0.446900
H       0.232573     -2.108006      0.539665
H       0.141379     -1.818776     -1.212907
H      -2.107609     -1.072286      0.700116
H      -2.037556     -0.798232     -1.066531
H      -1.164254      1.569152     -0.227925
H       1.044414      0.707958      1.122206
