10
Extracted from Q-Chem output
O      -3.049744     -0.123605     -0.833972
C      -1.881516     -0.808209     -0.888304
C      -0.741423     -0.431178     -0.362729
C       0.372461     -0.078945      0.141951
C       1.488072      0.272230      0.647678
C       2.631461      0.631288      1.165030
H      -2.916556      0.692121     -0.342293
H      -1.979654     -1.740693     -1.431214
H       2.904175      0.349785      2.176713
H       3.343266      1.222928      0.599152
