10
Extracted from Q-Chem output
O      -2.076172     -0.121251      0.421844
C      -0.920740     -0.617734     -0.123173
C      -0.303650     -0.048976     -1.248939
C       0.827410      0.447001     -1.400602
C       1.661368      0.668670     -0.388465
C       1.593701      0.376401      0.835424
H      -2.080501      0.835272      0.332000
H      -0.918198     -1.703074     -0.045665
H       0.277735     -0.207038      0.713629
H       2.109595      0.356452      1.775961
