19
Extracted from Q-Chem output
C      -2.372542      0.397522      0.404134
C      -0.945448     -0.142200      0.393207
C      -0.669740     -0.909598     -0.912555
O       0.712742     -0.808517     -1.258562
C       1.522032     -0.539617     -0.224266
C       2.790136      0.056303     -0.441618
C       0.156213      0.883134      0.538658
H      -3.104016     -0.398966      0.234782
H      -2.507702      1.149332     -0.377489
H      -2.604729      0.864707      1.362169
H      -0.855054     -0.850017      1.225476
H      -0.949217     -1.964153     -0.832839
H      -1.212091     -0.471877     -1.752905
H       1.412537     -1.151175      0.671112
H       3.614488     -0.245971      0.185015
H       1.679954      0.732936      0.189947
H       2.973767      0.522690     -1.398246
H       0.039757      1.722657     -0.156250
H       0.284739      1.238267      1.563118
