19
smiles: [C:1]([C:2](/[C:3](=[C:5](/[C:6]([O:7][H:19])([H:17])[H:18])[H:15])[H:13])([H:11])[H:12])([H:8])([H:9])[H:10].[O:4]([H:14])[H:16]
C        2.59257900      -0.17720200       0.20035700
C        1.61009700      -0.72054900      -0.83583800
C        0.18526000      -0.60670600      -0.38741800
O       -0.73141200       1.37608100       2.25073900
C       -0.74422700       0.10430200      -1.00587100
C       -2.16584000       0.23956200      -0.56495100
O       -2.39490800      -0.50798900       0.60975800
H        3.62520200      -0.29647700      -0.13324400
H        2.41401800       0.88412700       0.38421500
H        2.48741700      -0.70003700       1.15376800
H        1.84147400      -1.77361000      -1.02939300
H        1.73933500      -0.19326400      -1.78522800
H       -0.08932400      -1.13892500       0.51963900
H       -1.28068800       0.67057600       1.90699200
H       -0.49512600       0.65028800      -1.91367900
H        0.00606400       1.44383000       1.64302800
H       -2.82456100      -0.09839200      -1.37819100
H       -2.38533500       1.30439500      -0.39878500
H       -3.30758300      -0.39078100       0.87368300
