17
Extracted from Q-Chem output
C       2.662321     -1.000488     -0.170723
C       1.393412     -1.437013      0.544285
O       0.271419     -0.740423      0.156983
C      -1.805920      0.579032      0.176237
C      -2.063814      1.882721      0.819356
C      -1.254676      0.429660     -1.092797
O      -0.911985     -0.707119     -1.485342
H       2.854960      0.058866      0.008388
H       3.527182     -1.575195      0.169509
H       2.549955     -1.148784     -1.246197
H       1.222364     -2.518933      0.423519
H       1.496671     -1.285475      1.633759
H      -2.078867     -0.331890      0.694293
H      -3.122928      1.969861      1.082095
H      -1.508551      1.954429      1.758691
H      -1.781398      2.719695      0.181112
H      -0.941106      1.325876     -1.646223
