10
Extracted from Q-Chem output
C       0.143253      0.528171     -0.759495
C       1.010166     -0.192465      0.232060
N       0.633584     -1.618138      0.229861
N      -0.566032     -1.666443     -0.048590
C      -1.013295     -0.273716     -0.237335
C      -0.186396      0.612564      0.648319
H       0.301709      1.230110     -1.560974
H       2.030053      0.082607      0.454721
H      -2.045128     -0.081036     -0.489589
H      -0.382394      1.403571      1.352651
