10
Extracted from Q-Chem output
C       0.319899      0.685235     -0.628471
C       1.137782     -0.381751      0.033299
N       0.675810     -1.608096      0.185328
N      -0.614481     -1.641459     -0.045634
C      -1.114250     -0.415823     -0.021988
C      -0.363287      0.747582      0.545154
H       0.624794      1.432980     -1.353193
H       2.148471     -0.131934      0.329901
H      -2.135085     -0.239420     -0.337619
H      -0.728181      1.571029      1.149467
