12
Extracted from Q-Chem output
N       1.915917     -1.442005      0.942948
C       0.859492     -1.392976      0.499860
C       1.214099      1.218753     -0.938660
C      -0.510121     -1.357029     -0.031879
N      -1.305806     -0.198077      0.316818
C      -0.888855      0.982963      0.370266
N       0.391108      1.522656      0.042594
H       0.763111      0.371816     -1.486103
H      -0.470848     -1.478954     -1.117371
H      -1.027624     -2.233380      0.361448
H      -1.587726      1.749345      0.705823
H       0.638406      2.325206      0.609808
