12
Extracted from Q-Chem output
N       1.914529     -1.571953      0.809067
C       1.133807     -0.928203      0.226632
C       1.126544      0.648903     -0.637141
C      -0.435668     -1.159347     -0.069213
N      -1.368083     -0.113065      0.149049
C      -1.026418      1.095765      0.233422
N       0.331008      1.457962      0.093772
H       0.557825      0.361916     -1.529978
H      -0.483925     -1.512694     -1.098704
H      -0.686411     -1.984611      0.593638
H      -1.751789      1.869747      0.464801
H       0.740383      1.903644      0.905872
