13
Extracted from Q-Chem output
C       1.338246     -0.391750     -0.420726
C       0.346490      0.197542      0.632531
C      -0.144293      1.096650     -0.493975
C       0.738943      0.620405     -1.367369
C      -1.721602     -0.812865      0.987911
N      -0.495672     -0.785760      1.267843
H       1.132662     -1.436820     -0.657715
H       2.398535     -0.275679     -0.188328
H       0.869624      0.737935      1.425691
H      -0.892091      1.878188     -0.550948
H       0.979092      0.878362     -2.391798
H      -2.354360     -1.562322      1.460126
H      -2.198794     -0.120981      0.284936
