10
Extracted from Q-Chem output
N      -0.102962      0.480489      1.974730
C       0.890870     -0.202968      1.359508
C       1.473431     -0.731468      0.444946
C      -0.959671      0.786757      1.084463
O      -1.004226      0.556168     -0.253291
C      -0.176413     -0.158571     -1.151815
C       0.977300     -0.772425     -0.928149
H      -1.847688      1.343238      1.365084
H      -0.656040     -0.121022     -2.120051
H       1.478347     -1.266656     -1.748728
