10
Extracted from Q-Chem output
N       1.583406      0.961308     -0.456809
C       1.431671     -0.290276     -0.151367
C       0.897368     -1.393530      0.198718
C       0.643886      1.279724      0.477454
O      -0.616514      0.975851      0.425846
C      -1.118245     -0.125852     -0.269963
C      -0.440532     -1.295693     -0.340260
H       0.857563      1.950902      1.309638
H      -2.171826      0.006153     -0.459868
H      -0.993830     -2.155046     -0.706696
