17
Extracted from Q-Chem output
C      -2.064616     -0.595838      0.373681
C      -1.110485      0.286003     -0.424061
O      -0.938867      1.548623      0.134176
C       0.196287     -0.364905     -0.690582
C       1.410208      0.307931     -0.913687
C       1.857167     -0.022201      0.719267
O       0.782066      0.129467      1.473358
H      -3.020748     -0.084256      0.472995
H      -2.231684     -1.554549     -0.123615
H      -1.643512     -0.770460      1.363594
H      -1.522144      0.410825     -1.445107
H      -0.324898      1.359412      0.884327
H       0.190919     -1.450800     -0.775349
H       2.131215     -0.190846     -1.553685
H       1.331635      1.383716     -1.031165
H       2.713755      0.651203      0.916300
H       2.246593     -1.049034      0.611899
