13
Extracted from Q-Chem output
C      -1.274729     -0.818621     -0.972753
N      -0.596525      1.257544      0.084190
C       0.033520      1.541918      1.134511
C      -0.135250      0.185268     -0.792610
C       1.103677     -0.492825     -0.383377
C       2.106936     -1.050870     -0.040990
H      -1.005744     -1.574651     -1.710312
H      -2.170275     -0.293512     -1.303798
H      -1.490096     -1.315942     -0.026258
H      -0.349276      2.343263      1.763497
H       0.947095      1.032106      1.455820
H       0.052663      0.661569     -1.760201
H       2.999098     -1.550638      0.255039
