14
Extracted from Q-Chem output
C      -1.307296     -0.930876      0.123226
C      -0.440944     -0.022263     -0.723232
C       0.091075      1.188494      0.045641
N       0.928358      0.833537      1.158844
C       1.833448      0.065994      1.338341
O       2.719957     -0.623458      1.648703
O       0.625057     -0.810303     -1.222190
H      -0.734316     -1.341054      0.955485
H      -1.673271     -1.760936     -0.480254
H      -2.162690     -0.385794      0.525080
H      -1.039633      0.373978     -1.555548
H      -0.747529      1.776854      0.421765
H       0.656949      1.834809     -0.634070
H       1.110809     -0.310465     -1.881362
