10
Extracted from Q-Chem output
N       3.157261     -0.726501      0.276186
C       2.063206     -0.388211      0.209074
C       0.690820      0.094173      0.081910
N      -0.205832     -0.764483      0.585658
C      -1.514805     -0.929942      0.097385
C      -1.794493      0.301698     -0.008478
N       0.427088      1.246475     -0.419685
H      -1.989859     -1.894846     -0.003941
H      -2.035970      1.339746      0.031094
H       1.241356      1.684607     -0.839932
