14
Extracted from Q-Chem output
N      -0.295944      3.494637     -0.424436
C      -0.256674      2.386906     -0.128745
C      -0.190444      0.980875      0.240329
C       1.087262      0.265240     -0.200597
C       0.879670     -1.220518     -0.090594
C      -0.360310     -1.709737     -0.065102
C      -1.593599     -0.994057     -0.213734
H      -0.350688      0.882988      1.314461
H       1.319954      0.546542     -1.233268
H       1.929299      0.594412      0.412208
H       1.739334     -1.875042     -0.042870
H      -0.528346     -2.784611      0.041081
H      -1.075682      0.496970     -0.314881
H      -2.156850     -0.980904      0.734111
