14
smiles: [C:1]([C@@:2]1([H:10])[O:3][C@@:4]1([C:5](=[O:6])[H:12])[H:13])([H:7])([H:8])[H:9].[H:11][H:14]
C        2.00969800       0.46562700       0.17053200
C        0.53571300       0.20537500       0.10001200
O       -0.30367500       0.98793200       0.91703600
C       -0.40537000       1.18212400      -0.47690500
C       -1.64356100       0.68490700      -1.15151100
O       -2.38737400      -0.12799200      -0.68113900
H        2.21212600       1.53584800       0.22022700
H        2.51159400       0.04931900      -0.70472700
H        2.43130100      -0.00568500       1.05997600
H        0.22639600      -0.83719400       0.04268200
H       -1.65931500      -2.03427100       2.04017700
H       -1.81981200       1.11138500      -2.16089700
H       -0.01125700       2.12522100      -0.85074500
H       -1.83098400      -1.50152300       1.54918100
