9
Extracted from Q-Chem output
O       1.972796      0.089967     -0.391575
C       0.714110     -0.281191     -0.071068
N       0.635177     -1.687525      0.250365
O      -0.433902     -2.122700      0.552071
C      -1.423982      1.196226      0.007682
C      -0.328776      0.509494     -0.045794
H       2.523254     -0.699502     -0.324796
H      -2.063642      1.300212     -0.862930
H      -1.732150      1.693967      0.921550
