11
Extracted from Q-Chem output
C      -1.357356     -0.146248     -0.912820
C      -0.297899      0.615444     -0.134215
C       1.977019     -0.578645      1.581850
O       2.588465     -0.991817      2.475555
C       1.857961     -0.262501      0.241513
N       1.032990      0.205429     -0.548846
H      -1.294273     -1.216207     -0.708905
H      -1.232115      0.006866     -1.984832
H      -2.350977      0.199133     -0.624355
H      -0.377573      1.683948     -0.351037
H      -0.408807      0.467020      0.949633
