13
Extracted from Q-Chem output
C      -1.870577     -0.228102     -0.226667
C      -0.566214     -0.009451      0.524105
O       0.302183     -1.156858      0.357427
C       1.538641     -0.747652      0.012253
O       2.465237     -1.484108     -0.125451
C       1.481627      0.763062     -0.172764
C       0.144354      1.239709      0.204465
H      -2.321116     -1.167418      0.090095
H      -2.554506      0.593325     -0.021071
H      -1.688550     -0.275475     -1.300696
H      -0.777180      0.089843      1.602409
H       2.307681      1.303829      0.292974
H       1.578097      1.007093     -1.242496
