13
Extracted from Q-Chem output
C      -1.752119     -0.185908     -0.305214
C      -0.538302     -0.005965      0.582125
O       0.316915     -1.181311      0.474139
C       1.552697     -0.815288      0.118321
O       2.474562     -1.555341     -0.036099
C       1.517397      0.692568     -0.030215
C       0.276678      1.223537      0.309792
H      -2.281346     -1.101580     -0.044232
H      -2.421655      0.664618     -0.182888
H      -1.455412     -0.246162     -1.354508
H      -0.841578      0.056559      1.632682
H       2.422992      1.254193     -0.234005
H       0.768847      1.127878     -0.935316
