11
Extracted from Q-Chem output
O      -1.849805      0.167611      1.133380
C      -1.666113      0.040949     -0.119012
C      -0.371323     -0.459621     -0.389313
C       0.802856      0.495510     -0.148819
C       2.022889     -0.224872      0.218131
N       2.982051     -0.790641      0.491923
H      -2.491979      0.256454     -0.801005
H      -0.239284     -1.078086     -1.273166
H      -0.798570     -0.514662      1.058443
H       0.578331      1.202655      0.652575
H       1.032658      1.086976     -1.040855
