10
Extracted from Q-Chem output
N      -0.104186      1.383869      0.093343
C       1.038877      0.502833      0.239972
C       0.492100     -0.881016      0.359378
C      -0.838806     -0.790519      0.286356
C      -1.140658      0.634935      0.122333
H       1.702614      0.619813     -0.623103
H       1.619153      0.802454      1.119052
H       1.085395     -1.776411      0.480049
H      -1.562215     -1.591651      0.337361
H      -2.138179      1.054553      0.031748
