11
Extracted from Q-Chem output
N       2.536574      0.170056      0.382523
C       1.472387      0.577279     -0.044313
C       0.342399      1.134012     -0.420380
C      -1.001074      0.591059     -0.254374
C      -1.318984     -0.615465      0.204869
O      -0.365513     -1.510954      0.578874
H       3.054183     -0.449838     -0.234415
H       0.447337      2.093216     -0.913457
H      -1.820798      1.235837     -0.540125
H      -2.351335     -0.935325      0.294215
H      -0.775923     -2.311393      0.904995
