10
smiles: [N:4](=[C:5]=[N:6][H:10])[H:9].[O:1]([C:2]#[C:3][H:8])[H:7]
O       -1.96936000      -0.37428300       0.19205500
C       -1.52838800       0.78343900      -0.21794000
C       -1.18231700       1.86563600      -0.58812700
N        2.09172200      -0.04673000       0.90573900
C        1.31934400      -0.84903100       0.41661000
N        0.49710500      -1.68404200       0.09088100
H       -1.24780800      -1.00924900       0.22848000
H       -0.87088800       2.82667900      -0.91745400
H        2.18016300       0.86929500       0.49245200
H        0.74346900      -2.37838900      -0.59815600
