10
Extracted from Q-Chem output
O      -1.728255     -0.680571     -0.655300
C      -1.439061      0.530707     -0.352000
C      -1.063919      1.648312     -0.085758
N       1.071923      0.870522     -0.325980
C       1.130233     -0.298285      0.116828
N       0.559959     -1.348060      0.562396
H      -1.057355     -1.243908     -0.171991
H      -0.920800      2.658971      0.210254
H       2.259929     -0.046373     -0.126440
H       1.187347     -2.091316      0.827989
