12
Extracted from Q-Chem output
C      -1.644134     -0.142043     -0.074166
N      -0.307224     -0.696073     -0.119045
C       0.593839      0.093105     -0.971508
N       1.954796     -0.285006     -0.709190
C       1.280014      0.553256      0.239698
O       0.395823     -0.186623      1.066935
H      -2.184339     -0.596037      0.754980
H      -1.648972      0.949022      0.042296
H      -2.142794     -0.414920     -1.006730
H       0.275420      0.505090     -1.919656
H       2.053732     -1.247624     -0.400870
H       1.728309      1.452579      0.639065
