13
Extracted from Q-Chem output
O      -0.680130     -0.718005      1.571558
C       0.079202     -0.480868      0.460817
C      -0.739078     -0.514021     -0.801868
C      -1.702998      0.582743     -0.885630
C      -2.485433      1.484602     -0.961561
C       1.366913     -0.267699      0.476104
C       2.648716     -0.040199      0.485945
H      -0.129149     -0.635357      2.353550
H       3.369857     -0.847201      0.397148
H      -1.275832     -1.466659     -0.838765
H      -0.069301     -0.479209     -1.661370
H      -3.182361      2.285953     -1.028394
H       3.044796      0.966788      0.577866
