6
Extracted from Q-Chem output
C      -0.088539     -0.031589     -0.299114
C       0.816659      0.350987      0.542360
C      -0.990999     -0.413185     -1.137198
C      -1.884284     -0.789414     -1.964092
H       1.688016     -0.265414      0.727369
H       0.712665      1.291243      1.070061
