13
Extracted from Q-Chem output
C       1.597657     -0.334109     -1.377734
O       0.802866      0.727008      1.403303
C      -0.165356     -0.058940      1.071731
C      -1.679698      0.455009      1.061769
O      -1.727117      0.275696     -0.423037
C      -0.480526     -0.056115     -0.440398
O       0.174999     -0.034265     -1.524306
H       1.725655     -1.411015     -1.463008
H       1.925788      0.045161     -0.407298
H       2.082133      0.174505     -2.204912
H      -0.166470     -1.113336      1.445096
H      -1.746507      1.517620      1.274637
H      -2.467632     -0.137393      1.521544
