13
Extracted from Q-Chem output
C       1.876242     -0.160369     -1.122310
O       0.925807      0.162549      0.953425
C      -0.295375     -0.313736      0.820626
C      -1.620006      0.488337      1.104587
O      -1.982059      0.358534     -0.337126
C      -0.772199     -0.104364     -0.590663
O      -0.139352     -0.083538     -1.619280
H       2.145848     -1.009674     -0.516668
H       2.193446      0.801465     -0.756344
H       1.848334     -0.300955     -2.191363
H      -0.461770     -1.365120      1.136736
H      -1.455617      1.540092      1.326670
H      -2.387506      0.036606      1.729094
