14
Extracted from Q-Chem output
C      -1.162381     -0.333246      0.787855
C      -0.519218      0.871127      0.124577
C       0.891021      0.467111     -0.209860
C       1.046882     -0.967127      0.263675
C      -0.258658     -1.512305      0.721524
C      -0.110900      0.676894     -1.305011
H      -2.168102     -0.588391      0.438986
H      -1.288412     -0.196491      1.875232
H      -0.754926      1.870713      0.466186
H       1.715316      1.162250     -0.116682
H       1.535324     -1.649941     -0.438676
H       1.662353     -1.042665      1.176052
H      -0.486151     -0.193656     -1.833922
H      -0.005013      1.560186     -1.920660
