11
Extracted from Q-Chem output
O       1.406609     -0.876378      0.449019
C       0.327820     -0.158583      0.606127
C      -0.104398      1.342311      0.088498
O      -1.334538      0.805531     -0.458528
C      -0.541268     -0.324458     -0.547736
H       0.620475     -1.892644     -0.068864
H      -0.209094     -0.224015      1.562941
H      -0.299693      2.009177      0.922191
H       0.538506      1.759140     -0.682951
H      -0.272456     -2.015628     -0.372762
H      -0.117699     -0.466727     -1.542229
