11
Extracted from Q-Chem output
C      -1.174570     -0.345872     -0.078896
C       0.006606      0.048060      0.724036
C       1.292760     -0.210399     -0.037802
O       0.884604      0.747436     -1.038005
C      -0.170524      1.220232     -0.253298
H      -2.127152     -0.330993      0.438405
H      -1.049691     -1.078464     -0.867892
H      -0.066986      0.116794      1.800875
H       1.453856     -1.209333     -0.449622
H       2.192657      0.136095      0.471853
H      -1.300957      0.838951     -0.727470
