14
Extracted from Q-Chem output
O      -0.963505     -0.524197      1.616914
C      -0.614554      0.231199      0.497294
C      -0.124291      1.674824      0.645031
O       0.943232      1.425393     -0.278152
C       0.747098      0.012625     -0.194314
N       0.868860     -0.622936     -1.468510
C       0.162990     -1.640341     -1.693668
H      -0.271937     -0.446699      2.278228
H      -1.439784      0.142926     -0.209552
H      -0.779743      2.479987      0.310189
H       0.246184      1.899057      1.653735
H       1.487386     -0.444137      0.480707
H       0.261521     -2.148832     -2.650635
H      -0.556384     -2.054607     -0.977671
