15
Extracted from Q-Chem output
C      -1.448803     -0.804763      0.786617
C      -1.561963      0.353331     -0.194847
C      -0.237445      1.061491     -0.443980
C       2.974516     -0.467468     -0.235369
C       1.790348     -0.114982     -0.665000
N       0.704644      0.172874     -1.117174
H      -1.074934     -0.463824      1.755612
H      -2.418597     -1.277210      0.949678
H      -0.764708     -1.569803      0.414869
H      -2.272520      1.094866      0.181207
H      -1.951832     -0.003133     -1.151886
H       0.181941      1.435503      0.497703
H      -0.397124      1.914061     -1.107090
H       3.086549     -1.344364      0.385572
H       3.845309      0.111407     -0.506953
