15
Extracted from Q-Chem output
C      -2.120590     -0.390942      0.877680
C      -1.445569      0.351611     -0.265027
C       0.000191      0.111976     -0.402994
C       2.753543      0.434037     -0.021932
C       2.379317     -0.573265     -0.856706
N       1.753155     -1.334800     -1.498042
H      -1.699595     -0.090680      1.838950
H      -3.191356     -0.186993      0.902456
H      -1.985427     -1.468682      0.771842
H      -1.602176      1.436726     -0.187149
H      -1.902176      0.093306     -1.231366
H       0.506070     -0.533851      0.286168
H       0.542424      0.634261     -1.165163
H       3.044618      0.196180      0.992318
H       3.107910      1.365340     -0.442469
