16
Extracted from Q-Chem output
N       1.156551      0.458752      1.558976
C       1.221389     -0.802499      1.055412
O       1.915592     -1.679427      1.517846
C       0.299955     -1.076738     -0.101614
C      -1.036988     -0.754072     -0.019024
C      -1.351778      1.109802     -1.013813
O      -0.272730      1.629002     -1.388441
H       1.812393      0.691306      2.284399
H       0.800849      1.207666      0.988231
H       1.084291     -0.057303     -1.081851
H       0.629541     -1.885596     -0.742073
H      -1.739784     -1.326933     -0.609588
H      -1.405819     -0.369880      0.921974
H      -2.013462      0.651802     -1.757787
H      -1.836504      1.498159     -0.113889
H       0.764746      0.674318     -1.351224
