11
Extracted from Q-Chem output
C      -0.651235      0.739830     -0.157745
C      -0.621901     -0.774365      0.093409
C       0.816315     -1.055551     -0.190545
O       1.488706      0.041877      0.076260
C       0.732659      1.100381      0.271521
H      -1.449349      1.263448      0.363237
H      -0.756153      0.929904     -1.243356
H      -0.826430     -0.974192      1.162911
H      -1.330026     -1.342148     -0.505649
H       1.371033     -1.974988     -0.089863
H       1.244800      2.047989      0.218524
