13
smiles: [C:1](=[C:2]=[C:3]([H:8])[H:9])([H:7])[H:11].[N:4]1=[C:5]([H:10])[C:6]1([H:12])[H:13]
C        1.82879800      -0.86793700      -0.64891600
C        1.59882600       0.14851300       0.12713800
C        1.36686400       1.16350800       0.90449100
N       -1.86732500       0.18857300       0.94880800
C       -1.62077200      -0.85247000       0.31484300
C       -1.92406400       0.24710300      -0.57216100
H        1.59642800      -0.82620800      -1.70646700
H        2.11882900       1.92662400       1.06649000
H        0.41519000       1.27001800       1.41152600
H       -1.35315500      -1.88213100       0.50591200
H        2.25803300      -1.78238700      -0.25705300
H       -2.90975100       0.34149300      -1.01642900
H       -1.12723900       0.79419800      -1.06559200
