16
Extracted from Q-Chem output
C      -0.412539      1.458481     -0.317993
C      -0.521546      0.084023      0.312223
C       0.390380     -0.987938     -0.270199
C       1.806604     -0.730269     -0.025116
C       2.960067     -0.495956      0.193147
C      -1.571108     -0.347024      1.798141
N      -1.907174     -0.388982      0.416872
H       0.626175      1.787891     -0.345505
H      -0.994099      2.184068      0.251802
H      -0.795119      1.423749     -1.340879
H       0.205378     -1.043089     -1.346823
H       0.109318     -1.956453      0.146661
H       3.988174     -0.297904      0.385394
H      -1.034993     -1.296071      1.989631
H      -0.219487      0.312069      1.425151
H      -2.523621      0.389254      0.208187
