10
Extracted from Q-Chem output
C      -1.259386     -0.131482     -0.107030
C      -0.233619      0.674448      0.622743
N       1.020191      0.607039      0.508152
C       1.688577     -0.298282     -0.301237
O       1.816180     -1.469694     -0.066554
H      -1.880834     -0.664793      0.615886
H      -0.814340     -0.856604     -0.785552
H      -1.920422      0.536429     -0.664537
H      -0.616445      1.411690      1.331782
H       2.186042      0.191734     -1.157791
