10
Extracted from Q-Chem output
C      -1.007471     -0.522098      0.031549
C      -0.383968      0.691442      0.383139
N       0.829395      1.013609     -0.172511
C       1.533755     -0.120180     -0.312490
O       1.136083     -1.289539     -0.159525
H      -1.770812     -0.963920      0.666858
H      -0.898475     -0.903097     -0.971337
H      -1.395026      0.914452     -0.275172
H      -0.645409      1.131718      1.347650
H       2.594084      0.047957     -0.537653
