15
Extracted from Q-Chem output
C      -2.316566     -0.144888      0.063897
C      -0.840447      0.049945     -0.028042
C      -0.204415      1.238272      0.035949
N       1.212221      0.979691     -0.149166
C       1.351759     -0.482814     -0.071330
N       2.622093     -0.581783      0.289888
C       0.110490     -1.044531     -0.151724
H      -2.693325     -0.630309     -0.839159
H      -2.567680     -0.791485      0.907675
H      -2.837993      0.803782      0.190409
H      -0.586996      2.244570      0.052728
H       1.502129      1.270966     -1.081541
H       2.299330      0.778594      0.462733
H       3.043791     -1.479107      0.461988
H      -0.125766     -2.091295     -0.048356
