13
Extracted from Q-Chem output
N       1.599921     -1.288445     -1.217145
C       1.092166     -0.321001     -0.625202
O       1.623076      0.817729     -0.082607
C       0.341974      1.239146      0.470416
C      -0.303146      0.020407     -0.170626
C      -2.050760     -0.484336     -0.367342
N      -1.080706     -0.949383      0.570192
H       2.608064     -1.205492     -1.315232
H       0.354338      1.220005      1.558814
H       0.055169      2.215878      0.084470
H      -0.930092      0.214245     -1.156674
H      -2.423237      0.466476      0.061073
H      -0.761994     -1.872703      0.286809
