12
Extracted from Q-Chem output
N      -1.832035     -0.527339      0.708765
C      -0.585862     -0.235262      0.213436
N       0.491199     -0.876935      0.308766
C       1.513218     -0.028885     -0.241160
O       2.760283     -0.552272     -0.227193
C       1.155984      1.175967     -0.725739
N      -0.346473      1.081976     -0.406180
H      -1.895800     -1.456008      1.095022
H      -2.618236     -0.291063      0.125082
H       2.702784     -1.423553      0.170336
H      -0.863458      1.220172     -1.272283
H      -0.599597      1.837061      0.228100
