12
Extracted from Q-Chem output
N      -1.840303     -0.554808      0.805574
C      -0.623738     -0.180063      0.289864
N       0.465605     -0.858072      0.300491
C       1.449353     -0.030812     -0.233431
O       2.685583     -0.550344     -0.352970
C       1.125954      1.255145     -0.580166
N      -0.436534      1.077447     -0.278300
H      -1.869843     -1.522180      1.084190
H      -2.652148     -0.265393      0.285749
H       2.654599     -1.443201      0.000359
H      -0.111009      1.105021     -1.340993
H      -0.965515      1.891117     -0.003416
