16
smiles: [C:1]1([H:7])([H:8])[C@:3]2([H:10])[C:2]([H:9])=[C:6]([H:15])[C:5]([H:13])([H:14])[C@:4]12[H:12].[H:11][H:16]
C        1.34420600      -0.39339900      -1.18865200
C        0.20806800      -0.97316100       0.98809900
C        1.11489800      -0.04523100       0.25932200
C        0.25647100       0.56859500      -0.82368200
C       -1.15477700       0.02593900      -0.65422700
C       -1.01667200      -0.96849500       0.47322000
H        1.07261000      -1.39193700      -1.51100300
H        2.22214000       0.01941900      -1.66920000
H        0.53640000      -1.59672500       1.81034100
H        1.86959000       0.51865700       0.79220800
H       -0.79997100       1.65311300       1.92851900
H        0.38780600       1.60501800      -1.10413100
H       -1.53487700      -0.43924400      -1.56907300
H       -1.85914000       0.82157800      -0.39190200
H       -1.82988900      -1.60684500       0.79559900
H       -0.93292700       2.37311500       2.06420200
