13
Extracted from Q-Chem output
C      -2.177847      0.503914      0.158999
C      -0.728664      0.174801      0.029054
N      -0.399679     -0.783033     -0.935197
O       0.965328     -0.997131     -0.799372
C       1.355904     -0.065047      0.094936
N       2.677077     -0.011462      0.282223
C       0.350689      0.716387      0.672846
H      -2.779008     -0.385639      0.369215
H      -2.304377      1.212704      0.973001
H      -2.560269      0.950074     -0.761761
H       3.019159      0.686680      0.914311
H       3.310108     -0.630931     -0.186595
H      -0.863526     -1.683649     -0.915039
