12
Extracted from Q-Chem output
O      -1.404609      0.783855     -0.616489
C      -1.278160     -0.250311      0.121283
C       0.813056     -0.723289      0.021260
O       0.978032     -0.827257     -1.310550
C       0.842386      0.488401      0.676224
O       0.700491      1.589353      0.014288
H      -0.417589      1.458502     -0.382789
H      -1.402174     -1.231364     -0.343407
H      -1.543543     -0.200866      1.183401
H       0.922753     -1.660726      0.550768
H       0.975227      0.065092     -1.681359
H       0.850327      0.500016      1.767857
