15
Extracted from Q-Chem output
C      -1.759276     -0.191819     -0.423358
O      -2.389200     -1.293497      0.189833
C       0.491150     -0.995140      0.466467
C       1.858309     -0.473067      0.545526
C       1.899251      0.746411     -0.002318
C       0.528119      1.115429     -0.482308
C      -0.297461     -0.088335     -0.126942
H      -1.914468     -0.321255     -1.498646
H      -2.256682      0.749520     -0.148044
H       0.177592     -1.969191      0.817489
H       2.693971     -1.004981      0.980324
H       2.765703      1.385375     -0.096581
H       0.152945      2.021790      0.006173
H       0.511924      1.316658     -1.559715
H      -2.240046     -1.233282      1.136054
