15
Extracted from Q-Chem output
C      -2.522427      0.839569      0.345242
C      -1.351020      0.246974      0.508793
C      -0.824280     -0.832608     -0.390479
O       0.425509     -0.519750     -0.969285
C       1.510178     -0.619093     -0.083177
C       2.173298      0.602924      0.431842
C       2.789702     -0.037149     -0.508487
H      -2.875030      1.602236      1.029061
H       2.122726      1.457798      1.084128
H      -3.176849      0.580735     -0.481055
H      -0.715586      0.530405      1.343889
H      -1.515233     -0.999264     -1.218567
H      -0.746992     -1.775366      0.171809
H       1.464757     -1.537748      0.506978
H       3.614552     -0.104250     -1.196585
