16
Extracted from Q-Chem output
C       1.560773      1.158326      0.079339
C       0.515144      0.042841      0.095438
C      -0.219978     -0.016075      1.440638
C      -1.763118     -0.527841     -0.074572
C      -0.706053      0.282334     -0.808669
C       1.149033     -1.235653     -0.278751
N       1.629672     -2.242383     -0.552635
H       2.017885      1.243880     -0.908067
H       2.351945      0.961396      0.803900
H       1.079653      2.099715      0.342448
H      -1.634257     -0.196534      1.040803
H      -0.115180     -1.017558      1.885610
H      -1.641801     -1.603941     -0.176097
H      -2.799358     -0.240153     -0.253357
H      -0.558137     -0.000564     -1.850412
H      -0.954692      1.343396     -0.762683
