10
Extracted from Q-Chem output
O       2.164982      0.131369     -0.158605
C       0.981349     -0.436058      0.060077
C       0.185694     -1.311141      0.359421
N      -1.938882     -0.134868     -0.016962
N      -1.295769      0.905247     -0.248633
C      -0.205813      1.356588     -0.446563
H       2.846903     -0.525454      0.011283
H      -0.395179     -2.163742      0.610251
H      -2.517200     -0.007506      0.813262
H       0.163281      2.211443     -0.987507
