9
Extracted from Q-Chem output
N      -0.447193      1.119251      0.139852
C       0.791815      0.818090      0.132438
C       0.965883     -0.633435     -0.062212
N      -0.168316     -1.205426     -0.171739
C      -1.134986     -0.137524     -0.052131
H      -1.753974     -0.092132     -0.953218
H       1.575879      1.556511      0.257988
H       1.903688     -1.175641     -0.109935
H      -1.805364     -0.331302      0.790623
