14
smiles: [N:2]#[C:3][C:4]([C:5]([C:6](=[O:7])[H:13])([H:11])[H:12])([H:9])[H:10].[O:1]([H:8])[H:14]
O        1.34615500       1.98159500      -0.28882600
N        2.34726200      -0.69679500      -0.11489800
C        1.26244100      -0.92307200      -0.41036200
C       -0.12891700      -1.20660400      -0.75929600
C       -1.11250300      -0.79562900       0.34432700
C       -1.11218900       0.69014300       0.61189000
O       -2.11129400       1.34530100       0.70859500
H        2.06966100       1.39783100      -0.05762900
H       -0.21540300      -2.27693200      -0.95274000
H       -0.35990200      -0.69280300      -1.69511900
H       -0.83914700      -1.29909800       1.27718200
H       -2.12489200      -1.09897800       0.07871100
H       -0.11285500       1.15884500       0.72459000
H        1.08404500       2.40032500       0.53201900
