14
Extracted from Q-Chem output
O       1.730907      1.912403      0.220793
N       1.821560      0.087212     -0.351470
C       0.662624     -0.228946     -0.480058
C      -0.200964     -1.455391     -0.663867
C      -1.288667     -0.852952      0.248830
C      -0.696953      0.565586      0.069429
O      -0.419332      1.339573      1.071080
H       2.441781      1.855698      0.863960
H       0.270005     -2.389037     -0.365826
H      -0.507997     -1.516200     -1.708362
H      -1.162471     -1.165643      1.284174
H      -2.323269     -0.989524     -0.059645
H      -1.065134      1.037251     -0.861898
H       0.737909      1.799969      0.732860
