15
smiles: [C:1]([H:7])([H:8])([H:9])[H:13].[C:2]([C:3]([H:10])([H:11])[H:12])(=[C:4]([H:14])[H:15])[C:5]#[N:6]
C        1.94458600      -1.54556700      -0.29248300
C       -1.03936500       0.58949400       0.33041300
C       -0.29985600       1.55919900      -0.54549700
C       -2.10158700      -0.11641700      -0.04186900
C       -0.53273200       0.43825500       1.67101500
N       -0.10563300       0.33869200       2.73270000
H        1.74590300      -1.26387200       0.74050000
H        2.39372400      -2.53730300      -0.31762000
H        2.62874900      -0.82631200      -0.74011700
H        0.74429400       1.26075900      -0.65559700
H       -0.30865900       2.55762000      -0.10439300
H       -0.75882900       1.60586600      -1.53197500
H        1.01046200      -1.55525300      -0.85192900
H       -2.50291300      -0.02162900      -1.04348400
H       -2.59465400      -0.79979100       0.63658900
