13
Extracted from Q-Chem output
C       1.357757     -0.472239     -0.331655
C       0.386111      0.230805      0.599910
C      -0.773270      0.909085     -0.154446
C      -1.585423     -0.070330     -0.871475
N      -2.194090     -0.881755     -1.407897
O      -0.108931     -0.630047      1.600412
H       2.169189     -0.913833      0.246387
H       1.786217      0.225222     -1.054062
H       0.856585     -1.268864     -0.888328
H       0.909074      1.022366      1.141608
H      -1.412550      1.431296      0.558821
H      -0.393048      1.641836     -0.869346
H      -0.492008     -1.407362      1.183080
