17
Extracted from Q-Chem output
C      -1.923051      0.366766      0.350345
C      -0.687800      0.246520     -0.511157
C       0.228298     -1.021106     -0.471970
C       1.315829     -0.099675     -1.097254
C       0.666087      0.932805     -0.129898
C       0.974379      0.264340      1.209515
C       0.687479     -1.013633      0.985596
H      -2.334150      1.377494      0.294759
H      -2.697705     -0.322478      0.005860
H      -1.711599      0.143026      1.396528
H      -0.937247      0.483643     -1.550125
H      -0.070199     -1.965734     -0.923250
H       1.142547      0.122968     -2.152346
H       2.357013     -0.364363     -0.914165
H       0.821844      2.005541     -0.228908
H       1.335484      0.744154      2.107147
H       0.747692     -1.863391      1.649513
