17
Extracted from Q-Chem output
C      -1.955986      0.322185      0.361179
C      -1.014414     -0.153495     -0.694775
C       0.333659     -0.881211     -0.585891
C       1.387967      0.079686     -1.088706
C       1.290439      1.037928      0.078755
C       0.991058      0.323094      1.226538
C       0.514024     -0.934213      0.875004
H      -2.574616      1.115270     -0.069447
H      -2.658565     -0.459974      0.682044
H      -1.457425      0.697890      1.252606
H      -1.574755     -0.465917     -1.584589
H       0.270694     -1.848688     -1.092160
H       1.127241      0.502000     -2.056139
H       2.398586     -0.359910     -1.149625
H       1.725218      2.030163      0.085482
H       1.048750      0.717865      2.232960
H       0.114466     -1.693516      1.530542
