12
Extracted from Q-Chem output
C      -1.889273     -0.030923      0.097872
C      -0.408643     -0.091818      0.065485
C       0.548076      0.848109      0.147964
C       1.789749      0.112193      0.058956
C       1.518464     -1.289566     -0.026162
O       0.141054     -1.324892     -0.089785
H      -2.226812      0.996301      0.221854
H      -2.271293     -0.632210      0.924504
H      -2.307427     -0.433426     -0.826131
H       0.409085      1.911102      0.252516
H       2.787589      0.495303      0.224064
H       1.934429     -0.506670     -1.043293
