17
Extracted from Q-Chem output
C      -1.883144     -0.287440      0.558667
C      -0.973088      0.001115     -0.608393
O      -0.762070      1.405566     -0.743019
C       0.634437      1.385093     -0.667185
C       1.555266      0.323905      0.873645
C       1.036131     -1.058798      0.751337
C       0.502869     -0.386284     -0.473054
H      -2.847241      0.193368      0.388137
H      -1.459410      0.111558      1.481732
H      -2.047576     -1.361089      0.669474
H      -1.394125     -0.417007     -1.530790
H       1.117045      1.409770     -1.650442
H       0.998566      2.204220     -0.061545
H       2.507747      0.378948      0.322415
H       0.300567     -1.350578      1.495739
H       1.728301     -1.863364      0.511511
H       0.964329     -0.763760     -1.376744
