15
Extracted from Q-Chem output
C      -2.080223     -0.100332      0.914876
C      -1.475999     -0.349941     -0.457711
C      -0.147955      0.293205     -0.678250
O       0.250545      1.299682      0.063818
C       0.926347     -0.231072     -1.493801
C       1.502433      0.283618     -0.413838
C       2.526496      0.175673      0.633413
H      -1.459673     -0.531484      1.701753
H      -3.069786     -0.553521      0.978841
H      -2.175063      0.966625      1.115183
H      -2.113866      0.064309     -1.248053
H      -1.378631     -1.411313     -0.688399
H       3.001403      1.142382      0.802409
H       2.071831     -0.153061      1.569203
H       3.269541     -0.554171      0.315218
