9
Extracted from Q-Chem output
N       1.851518      0.185004     -0.041998
C       0.904091      0.615293      0.767945
N      -0.246963      0.917194      0.222120
C      -1.381523      0.392126      0.133767
N      -1.618631     -0.950716      0.677201
O      -1.408514     -1.836503     -0.093074
H       1.711356      0.015634     -1.030620
H       2.766962      0.010043      0.328998
H      -2.265907      0.919681     -0.212563
