11
Extracted from Q-Chem output
C      -1.624395      0.022251     -1.065593
N      -1.186778      0.670928      0.151887
C       0.007355      0.672417      0.495501
O       1.035780      0.134088     -0.301428
C       2.093363     -0.481476      0.188621
O       1.934107     -0.636734      1.495107
H      -2.078483      0.776602     -1.710025
H      -2.407919     -0.691357     -0.807330
H      -0.833025     -0.491054     -1.615067
H       0.353954      1.149743      1.404570
H       2.719573     -1.087087      1.817489
