12
smiles: [C:1]([O:2][H:9])([H:6])([H:7])[H:8].[C:3](=[C:4]([H:10])[H:11])=[N:5][H:12]
C        2.19689800      -0.28597600       0.19672400
O        1.80485100       0.57575800      -0.85062800
C       -1.69712800       0.27581700       0.39128800
C       -2.33927000      -0.76862800       0.83799600
N       -1.01508800       1.18650900      -0.04231900
H        1.59833900      -1.20360300       0.22434600
H        3.23445100      -0.56130600       0.01063300
H        2.14252600       0.20154400       1.17670900
H        0.89714600       0.84386000      -0.70506900
H       -2.93358700      -1.36920600       0.16506600
H       -2.28487100      -1.02931400       1.88494600
H       -1.45571100       2.10158400      -0.05525600
