13
smiles: [C-:1]([O:2][C:3]1=[C:4]=[N+:5]([H:12])[C:6]([H:13])=[N:7]1)([H:8])[H:9].[H:10][H:11]
C        2.26149200       0.12691900      -0.21537500
O        1.21364900       0.37715700      -0.84752400
C       -0.04171100       0.34610700      -0.30011700
C       -0.32679600       0.02396300       1.02380000
N       -1.68471900       0.16471200       0.93792100
C       -2.09363400       0.53172900      -0.32736400
N       -1.08134100       0.65418800      -1.12980900
H        2.19413900      -0.13279600       0.83865900
H        3.17828200       0.18793300      -0.78721800
H        1.42293200      -2.42975300       0.02191000
H        0.85746400      -2.08933200       0.36644500
H       -2.30864900       0.01471900       1.71107800
H       -3.12868600       0.69194000      -0.59294300
