14
smiles: [C:1]([C@:2]1([C:3](=[O:4])[H:12])/[C:5](=[N:7]/[H:14])[O:6]1)([H:8])([H:9])[H:10].[H:11][H:13]
C       -0.75529400      -1.05365600       0.95171700
C       -0.08135900       0.20452200       0.50824400
C       -0.94440000       1.37166500       0.12285400
O       -2.10263600       1.25872000      -0.15516100
C        1.28777200       0.23725100       0.05894400
O        1.10834300       0.65869500       1.31076400
N        2.15534200       0.04050400      -0.80818200
H       -1.38496500      -0.86144600       1.82088400
H       -1.39573700      -1.41186700       0.14556500
H       -0.02114800      -1.82044900       1.19127200
H       -0.65084400      -0.68399900      -2.60859600
H       -0.41913900       2.34628400       0.11351200
H        0.07541200      -0.58989800      -2.47371300
H        3.08734100       0.26705200      -0.46774600
