11
smiles: [H:7][H:9].[N:1]#[C:2]/[C:3](=[C:4]1\[C:5]([H:10])([H:11])[O:6]1)[H:8]
N        3.16783100       0.85121300      -0.17188300
C        2.18913000       0.35552800      -0.51520900
C        0.98651200      -0.26930000      -0.94882100
C       -0.18586200       0.17265800      -0.52370400
C       -1.08372200       1.00671200       0.20768200
O       -1.47346000      -0.10825600      -0.67110700
H       -0.87583600      -1.90390700       2.09048000
H        1.04714700      -1.10890900      -1.62769500
H       -1.24894000      -1.90892400       1.44614300
H       -1.25419300       0.82258500       1.26205800
H       -1.34446100       1.98668000      -0.17479200
