11
Extracted from Q-Chem output
N       2.793416      0.891706     -0.315751
C       1.927294      0.129171     -0.342968
C       0.856515     -0.787021     -0.339808
C      -0.437977     -0.310853      0.016217
C      -1.102888      0.969051      0.073901
O      -1.618061     -0.170560     -0.655541
H      -0.036056     -1.098407      0.975329
H       0.941740     -1.739573     -0.842019
H      -0.966245     -0.944960      1.179326
H      -1.679348      1.254128      0.945937
H      -0.702428      1.764249     -0.544398
