11
Extracted from Q-Chem output
N       2.104340     -0.499913      1.628324
C       1.607453     -0.343252      0.598166
C       0.934191     -0.072632     -0.625263
O      -0.184571     -0.769738     -0.905057
C      -1.266042     -0.666990     -0.029961
C      -1.444631      0.824548      0.274145
N      -0.535094      1.579805      0.147017
H       1.531410      0.131672     -1.503232
H       0.339335      2.010931     -0.101128
H      -2.132821     -1.113575     -0.507086
H      -1.076453     -1.129432      0.944767
