13
Extracted from Q-Chem output
C      -1.649801      0.565490      0.116104
C      -0.669334     -0.596811      0.084606
C       0.431393     -0.422344     -0.937540
C       1.900395      0.075630      0.001977
O       1.568127     -1.167772     -0.539103
H      -2.514302      0.336902      0.740720
H      -1.180227      1.465997      0.520234
H      -2.002936      0.798549     -0.889272
H      -1.171544     -1.496562     -0.294781
H      -0.301734     -0.857287      1.085244
H       1.126330      0.783648     -0.612345
H       2.851765      0.452292     -0.368736
H       1.726269      0.173668      1.070531
