11
Extracted from Q-Chem output
N      -1.285855      0.789958      0.700449
C      -0.990171     -0.435389      0.211717
O      -1.809574     -1.265875     -0.113468
C       0.482864     -0.707617      0.055016
C       1.288139      0.107746     -0.853250
O       1.386445      0.264411      0.552404
H      -0.552762      1.369746      1.068759
H      -2.248089      1.022403      0.867118
H       0.755228     -1.744357      0.223539
H       2.156218     -0.333423     -1.331903
H       0.817559      0.932399     -1.380381
