11
Extracted from Q-Chem output
N      -1.647532      0.856250      1.084386
C      -0.916608     -0.218140      0.804640
O      -1.080478     -0.724656     -0.374976
C       0.593070     -0.751817      0.004401
C       1.325691     -0.168999     -1.117206
O       1.526705      0.245896      0.244782
H      -1.581452      1.294635      1.983590
H      -2.296825      1.227139      0.400744
H       0.756776     -1.740569      0.398782
H       2.163529     -0.698079     -1.562282
H       0.833962      0.560694     -1.751061
