11
smiles: [C:1]([C:2](=[O:3])[C:4](=[O:5])[H:9])([H:6])([H:7])[H:8].[H:10][H:11]
C       -1.39565400      -0.13047200      -0.13824700
C       -0.19642900       0.72548200       0.15554000
O       -0.10384300       1.47040200       1.08856400
C        0.97553900       0.59899800      -0.85080600
O        1.97080300       1.24912500      -0.75994300
H       -1.10812000      -1.18549100      -0.15135400
H       -1.78764400       0.10369900      -1.13184600
H       -2.16600100       0.03296700       0.61090100
H        0.83000400      -0.13804900      -1.66892300
H        1.41247600      -1.80862900       1.43546000
H        1.75758200      -1.15046200       1.48149900
