11
Extracted from Q-Chem output
C      -1.454294      0.252165     -0.318867
C      -0.295954      0.064134      0.607835
O      -0.311323      0.254575      1.794421
C       0.989676     -0.407859     -0.101186
O       1.369231      0.202353     -1.212125
H      -1.641261     -0.669715     -0.875285
H      -1.187460      1.010606     -1.056906
H      -2.338355      0.544319      0.242142
H       1.101329     -1.508981     -0.030465
H       1.835078     -0.124421      0.932502
H       2.039810      0.254594      0.073308
