16
smiles: [C:1]([O:2][H:16])([H:7])([H:8])[H:9].[C:3]([C:4](=[O:6])[H:12])([C:5]([H:13])([H:14])[H:15])([H:10])[H:11]
C        2.25028600      -1.41588600      -0.57402000
O        2.26282200      -0.13796100       0.02548400
C       -0.89740700       1.14011700       0.03512200
C       -0.92908200       0.35237800       1.31526500
C       -1.91711500       0.61227600      -0.97221300
O        0.02085900      -0.17655500       1.82249200
H        2.62943100      -2.19314100       0.09920800
H        1.24952800      -1.70370100      -0.91586700
H        2.90538300      -1.36782600      -1.44314600
H        0.11768000       1.11691400      -0.36293600
H       -1.13721200       2.17876400       0.29041600
H       -1.93208600       0.27514900       1.79154700
H       -2.92664800       0.61754100      -0.55504200
H       -1.68137100      -0.41134400      -1.26829400
H       -1.92672100       1.22787800      -1.87170600
H        1.69139000      -0.15322100       0.79366400
