10
Extracted from Q-Chem output
C      -1.523136     -0.155030     -0.145596
C      -0.047208     -0.117358      0.016558
C       0.874564      0.891116     -0.102804
O       2.163308      0.654282      0.096265
N       1.776718     -1.516695      0.533871
N       0.701082     -1.232280      0.348544
H      -1.830545     -0.823079     -0.952187
H      -2.029197     -0.463262      0.770991
H      -1.855654      0.851449     -0.394432
H       1.797941      1.742728     -0.185787
