15
Extracted from Q-Chem output
C      -1.736307      0.000174     -0.750510
C      -0.676219     -0.709793      0.079896
O      -0.357137      0.934347      2.301050
C       0.515402      0.885798      1.462723
N       0.484586      0.121707      0.347428
C       1.540092      0.171759     -0.633751
H      -2.111855      0.872781     -0.215177
H      -1.339489      0.329664     -1.713238
H      -2.575544     -0.669222     -0.946502
H      -1.093064     -1.003659      1.043144
H      -0.328311     -1.614466     -0.426107
H       1.445999      1.476866      1.542767
H       1.994993     -0.813403     -0.769632
H       2.313717      0.864396     -0.302695
H       1.168688      0.517744     -1.602456
