11
Extracted from Q-Chem output
C      -1.795202     -0.098755      0.152436
C      -0.306844     -0.139152      0.093774
N       0.324644     -1.272185      0.190054
O       1.652063     -1.047166      0.117310
C       1.807435      0.326759     -0.070855
C       0.573792      1.026386     -0.002238
H      -2.205350     -1.095505      0.307024
H      -2.117326      0.554514      0.964123
H      -2.194813      0.315079     -0.774447
H       2.803180      0.682540      0.161547
H       1.567489      0.601376     -1.174146
