15
Extracted from Q-Chem output
C       1.379547     -0.355373      0.715951
C       0.620071     -0.348236     -0.598250
O       0.410656     -1.649225     -1.098675
C      -1.643185     -0.318114      0.384311
N      -2.323424     -0.880090      1.118982
C      -0.724286      0.407389     -0.523171
N      -0.534913      1.800784     -0.173091
H       0.793246     -0.829574      1.508929
H       1.636499      0.656982      1.031672
H       2.307830     -0.913484      0.595712
H       1.206050      0.173491     -1.357186
H       0.026811     -2.195811     -0.406898
H      -1.162525      0.356294     -1.521764
H      -1.367887      2.341381     -0.358009
H      -0.310377      1.910329      0.806673
