15
Extracted from Q-Chem output
C       1.456813     -0.234666      0.714166
C       0.683365     -0.397878     -0.578125
O       0.036526     -1.646179     -0.701718
C      -1.416885     -0.613742     -0.155833
N      -1.993865     -1.293540      0.635434
C      -0.574958      0.516418     -0.697225
N      -0.616098      1.770517     -0.026545
H       0.810936     -0.379010      1.585433
H       1.920414      0.751677      0.776452
H       2.238906     -0.992691      0.757578
H       1.339674     -0.229524     -1.436271
H      -0.970201     -1.913712      0.280262
H      -0.804023      0.642948     -1.754874
H      -1.405312      2.341809     -0.285686
H      -0.571710      1.685163      0.978375
