15
Extracted from Q-Chem output
N       2.933589     -0.089516      0.003183
C       0.373091      0.318039      0.660821
C       1.767196      0.463737      0.362593
N       1.250272      1.563642      0.683086
C      -0.672670      0.181484     -0.395176
C      -2.113428      0.360884     -0.021907
C      -1.597246     -1.002267     -0.369811
H       3.704117      0.511186     -0.232478
H       2.941616     -1.026153     -0.352048
H       0.076739     -0.066782      1.639256
H      -0.373323      0.549166     -1.370342
H      -2.332459      0.568903      1.018186
H      -2.766209      0.859812     -0.725466
H      -1.896381     -1.440471     -1.312788
H      -1.473011     -1.716223      0.435508
