15
Extracted from Q-Chem output
N       2.387296     -0.258416      0.109784
C       0.440744      0.329919      0.484169
C       1.668164      1.068527      0.230506
N       1.983725      2.234973      0.144984
C      -0.620419      0.147826     -0.458227
C      -2.052421      0.214252      0.089560
C      -1.511741     -1.082406     -0.340818
H       3.094754     -0.471749      0.802910
H       2.678351     -0.504799     -0.827194
H       0.279041     -0.038312      1.497324
H      -0.461804      0.563660     -1.444177
H      -2.165746      0.412858      1.146325
H      -2.753486      0.733878     -0.548704
H      -1.842613     -1.499064     -1.282110
H      -1.242017     -1.811911      0.410733
