14
smiles: [H:10][H:11].[O:1]=[C:2]1[C:3]([H:7])([H:8])[C:4]([H:9])=[C:5]([H:12])[C:6]1([H:13])[H:14]
O       -0.59876900       2.19360800      -0.78853400
C       -0.31732900       1.18585500      -0.20295000
C       -1.30569100       0.12137300       0.26721900
C       -0.42324500      -0.90362400       0.91595800
C        0.86103500      -0.56697500       0.87799100
C        1.09017300       0.74950100       0.19661300
H       -2.03465300       0.56914600       0.94874300
H       -1.87035500      -0.26145500      -0.58765400
H       -0.80774800      -1.81262100       1.36061800
H        0.24215900      -1.00157500      -2.63560100
H        0.27668700      -1.35610400      -1.98174900
H        1.66502000      -1.16426700       1.28864700
H        1.54149400       1.50680100       0.84404200
H        1.72215200       0.68188200      -0.69342000
