11
Extracted from Q-Chem output
C      -1.568143     -0.408894      0.080322
N      -0.231105      0.813770     -0.450476
C       0.881008      0.990885      0.275897
C       1.690102     -0.102767      0.045168
N       1.049665     -0.963315     -0.755638
N      -0.090039     -0.404832     -1.080059
H      -1.379715     -1.453113      0.305930
H      -1.721830      0.179159      0.978328
H      -2.336041     -0.256938     -0.663384
H       1.037184      1.872619      0.874858
H       2.695228     -0.299801      0.384970
