13
smiles: [C:1]([C:2](=[C:4]([H:12])[H:13])[H:10])([H:7])([H:8])[H:9].[O:3]([N+:6]#[C-:5])[H:11]
C       -1.17916900      -0.97128000       0.59706200
C        0.14914200      -1.46932000       0.12387700
O        0.14419300       1.56362800      -1.65624600
C        1.31339800      -1.18430000       0.68609400
C        0.37261400       2.39844600       0.66661500
N        0.25686700       2.07808700      -0.44821900
H       -1.68706000      -0.40808500      -0.19020200
H       -1.83563800      -1.80367400       0.86369000
H       -1.07492200      -0.32425900       1.46905400
H        0.13510100      -2.11331500      -0.75259400
H        0.00516900       2.31376000      -2.24889700
H        2.24339100      -1.57784300       0.29427700
H        1.37820300      -0.54652900       1.56194100
