14
Extracted from Q-Chem output
C       1.170765     -0.282268     -0.593033
C      -0.153879     -1.007235     -0.282331
C      -1.201150      0.000171     -0.492722
C      -0.488497     -0.771443      1.163380
N      -0.342816      0.495133      1.549340
C       0.808461      1.090330     -0.169918
C      -0.585890      1.145378      0.274318
H       1.311946     -0.365154     -1.673636
H       2.069611     -0.674050     -0.105047
H      -0.302748     -2.008091     -0.672602
H      -2.081515     -0.054519     -1.116551
H      -0.618449     -1.578203      1.877864
H       1.508280      1.912913     -0.102899
H      -1.093738      2.101225      0.343672
