11
Extracted from Q-Chem output
C      -1.165993      0.099185      0.042981
C      -0.060640     -0.706767      0.678445
C       1.164771     -0.169597     -0.080596
O       0.739885      1.026955     -0.760225
C      -0.617524      1.040123     -0.710248
H      -2.221634     -0.032948      0.218584
H      -0.177413     -1.783114      0.540744
H       0.002760     -0.520195      1.754925
H       1.506777     -0.877563     -0.840376
H       2.003443      0.091077      0.563545
H      -1.084912      1.829033     -1.282294
