11
Extracted from Q-Chem output
O      -0.193181      2.154331     -1.209717
C      -0.459287      1.177307     -0.604605
O      -1.668116      0.776299     -0.112758
C      -1.120485     -0.441987      0.463120
C       0.244898     -0.088339     -0.104610
C       1.277944     -0.942857     -0.686895
O       1.388059      0.150632      0.744015
H      -1.579176     -1.329355      0.030291
H      -1.209971     -0.435488      1.549978
H       1.830260     -0.316164     -1.401388
H       1.432345     -0.550450      1.404198
