14
Extracted from Q-Chem output
C      -0.999234     -0.604704      1.034967
C      -0.909476      0.480419      0.159094
C       1.217444      0.888781     -0.237606
C       1.497925     -0.441463     -0.424067
O       1.397722     -1.273659      0.549962
C      -1.371309      0.350789     -1.196672
N      -1.749649      0.245762     -2.276186
H      -1.493968     -1.502177      0.680870
H      -1.103867     -0.384205      2.091370
H       0.319801     -1.082585      0.971309
H      -0.960098      1.492079      0.538409
H       1.247971      1.570943     -1.077818
H       1.320955      1.312854      0.752106
H       1.606839     -0.849106     -1.432855
