15
Extracted from Q-Chem output
C       1.694206      1.042662     -0.129180
C       0.588948      0.212025      0.452720
C       0.291280      0.186775      1.744556
C      -2.010040     -0.437982     -1.139250
O      -0.872326      0.227085     -1.524475
C      -0.162320     -0.619361     -0.536825
C      -1.495955     -1.239716     -0.212304
H       2.198347      1.626394      0.640267
H       2.436285      0.410666     -0.624972
H       1.298892      1.726042     -0.883836
H       0.853097      0.775699      2.460360
H      -0.521731     -0.417387      2.126985
H      -2.962984     -0.221303     -1.602855
H       0.513774     -1.273002     -1.096475
H      -1.850074     -2.011380      0.447115
