15
Extracted from Q-Chem output
C       1.873334      0.524182      0.115383
C       0.416916      0.201809      0.045202
C      -0.528085      0.663288      1.009647
C      -1.835348     -0.335679     -0.251326
O      -1.396023      0.251262     -1.440716
C      -0.162263     -0.431490     -1.177774
C      -0.868153     -1.364546     -0.265866
H       2.418188     -0.194563      0.732814
H       2.348395      0.561681     -0.867168
H       1.984765      1.494314      0.609213
H      -0.331981      1.676802      1.385274
H      -0.947516      0.046322      1.787805
H      -2.859300     -0.234090      0.076635
H       0.479212     -0.653987     -2.024664
H      -0.597838     -2.215123      0.335044
