15
Extracted from Q-Chem output
C      -1.240298     -1.034830      0.155525
C      -0.370032      0.188965      0.137127
O      -1.057681      1.430349     -0.062451
C      -0.475080      1.180095      1.211224
C       1.605788     -0.989302     -0.848192
C       0.920868      0.126091     -0.630094
O       1.366633      1.327877     -1.062477
H      -2.174656     -0.816930      0.671807
H      -1.465981     -1.357994     -0.861083
H      -0.742554     -1.854503      0.674820
H       0.619172      1.940030     -1.010097
H       0.382161      1.799129      1.458493
H      -1.186131      1.012950      2.014554
H       2.539099     -0.961924     -1.392859
H       1.252067     -1.938440     -0.476105
