14
smiles: [C:1](/[C:4](=[C:2](/[O:3][H:11])[H:10])[H:12])([H:7])([H:8])[H:9].[C:5](=[O:6])([H:13])[H:14]
C        1.82417400      -1.16133000       0.78230600
C        0.66487500       1.01082300       0.41489500
O       -0.13780600       1.90729200      -0.21476900
C        0.92423900      -0.23104100       0.03026700
C       -2.63195600       0.08455400      -0.84609500
O       -2.00738800       0.47603900      -1.78761600
H        2.66633300      -1.48695200       0.16613200
H        2.23085200      -0.68120100       1.67398100
H        1.29241400      -2.06120400       1.10224600
H        1.09345500       1.44100400       1.31368300
H       -0.50626100       1.50397200      -1.00499800
H        0.46459000      -0.60802700      -0.88177200
H       -2.31358500       0.28914800       0.19420600
H       -3.56308700      -0.50271500      -0.96318600
