14
smiles: [C:1]([C:2]([C:3](=[O:4])[H:12])([H:10])[H:11])([H:7])([H:8])[H:9].[C:5](#[C:6][H:14])[H:13]
C       -1.18935400       1.07292700      -0.04060200
C       -1.06989100      -0.37557800       0.42829000
C       -0.15443100      -0.49772600       1.61458900
O        0.78668000      -1.23830100       1.68618000
C        2.04858000      -0.64640800      -1.37119700
C        2.16237500      -0.18735400      -2.46820600
H       -1.51716300       1.72700300       0.77063500
H       -1.91491600       1.16051100      -0.84927200
H       -0.23211100       1.44776400      -0.40687700
H       -0.70716600      -1.03349200      -0.36217700
H       -2.05354300      -0.74035000       0.74610900
H       -0.40399600       0.17346000       2.46677300
H        1.94823600      -1.05654200      -0.39361900
H        2.26270500       0.22272200      -3.44588500
