16
Extracted from Q-Chem output
C       1.860061     -0.422756     -0.036871
N       0.724493      0.477157     -0.053873
C      -0.397424      0.487386      0.981139
C      -0.997737      1.489397     -0.059001
C      -0.464395      0.362594     -1.004084
C      -1.119012     -0.942732     -0.567077
C      -1.074373     -0.859770      0.756097
H       1.518856     -1.458365      0.051506
H       2.426248     -0.306594     -0.960604
H       2.502067     -0.178842      0.809016
H      -0.102502      0.780423      1.987492
H       0.567681      1.640217     -0.121894
H      -2.078607      1.641540     -0.032298
H      -0.238689      0.527554     -2.056516
H      -1.511941     -1.718338     -1.207064
H      -1.419687     -1.548990      1.511842
