19
Extracted from Q-Chem output
C      -1.734307     -0.925861     -1.452241
C      -1.873788      0.096967     -0.355540
C      -1.454364     -0.236779      1.055087
C      -0.672105      0.750347      0.235945
O       0.568174      0.380533     -0.262379
C       1.604600      0.503262      0.689285
C       2.898278      0.050167      0.054482
H      -1.696055     -0.444114     -2.431376
H      -0.817964     -1.503534     -1.333680
H      -2.581195     -1.615181     -1.446308
H      -2.741883      0.741210     -0.444838
H      -0.993934     -1.207202      1.199404
H      -2.046978      0.117603      1.888308
H       1.680936      1.548240      1.022034
H      -0.745231      1.802975      0.505656
H       1.368598     -0.104311      1.573227
H       3.128424      0.657320     -0.822028
H       3.721599      0.142009      0.764929
H       2.826221     -0.992029     -0.259825
