10
Extracted from Q-Chem output
N       1.800300     -0.050686     -0.075158
C       0.556407     -0.270465      0.439303
O       0.357027     -0.814412      1.498069
N      -0.479632      0.164344     -0.390207
C      -1.811708      0.049640     -0.053536
O      -2.694886      0.403872     -0.787599
H       2.565949     -0.245462      0.544609
H       1.956942      0.613241     -0.810564
H      -0.289798      0.541142     -1.305414
H      -1.960603     -0.391214      0.940497
