10
Extracted from Q-Chem output
N       1.913326      0.243958     -0.041522
C       0.841933     -0.558330      0.265472
O       0.952128     -1.732076      0.544974
N      -0.352314      0.079772      0.187927
C      -1.564615      0.313901      0.214029
O      -2.410880      0.168765     -0.816174
H       2.810453     -0.140071      0.195581
H       1.806257      1.240177      0.018148
H      -1.926453     -0.221346     -1.554490
H      -2.097993      0.716999      1.077624
