15
Extracted from Q-Chem output
C       1.980362      0.043144      0.081599
O       0.737859      0.005671      0.755013
C      -0.391128     -0.230238     -0.054378
O      -0.356274     -1.471602     -0.669718
C      -1.516897     -0.193990      0.985040
C      -0.594107      0.837428     -1.117232
O      -2.176814     -1.160785      1.239605
H       2.093021     -0.814586     -0.585738
H       2.749274      0.000711      0.850649
H       2.101992      0.969981     -0.488193
H      -1.659624      0.771019      1.503735
H      -0.523325      1.834432     -0.680617
H      -1.572221      0.713919     -1.582830
H       0.160346      0.731508     -1.896177
H      -0.804802     -2.095788     -0.084021
