19
Extracted from Q-Chem output
C       3.071043      0.427339     -0.200122
C       2.072802     -0.699365     -0.072141
O       0.800609     -0.152344      0.181742
C      -0.201600     -1.128830      0.320947
C      -1.515370     -0.400994      0.506182
C      -2.071566      0.203911     -0.712716
C      -2.896905      1.379096     -0.427481
H       3.107366      1.012168      0.720030
H       2.792893      1.091940     -1.018965
H       4.068395      0.031178     -0.398583
H       2.356779     -1.378187      0.745987
H       2.042962     -1.296068     -0.995126
H       0.019672     -1.774297      1.184112
H      -1.485287      0.245468      1.397752
H      -2.311424     -1.147264      0.695337
H      -0.255240     -1.755893     -0.578631
H      -2.119004      2.154039     -0.569571
H      -3.658279      1.588375     -1.178572
H      -3.282998      1.500566      0.595162
