17
smiles: [C:1]([H:8])([H:9])([H:10])[H:13].[C:2](=[O+:3][C:4]([C:5]([H:14])([H:15])[H:16])=[C:6]([O-:7])[H:17])([H:11])[H:12]
C        1.89244700      -0.92648500       1.38151200
C        0.65174200      -0.50065100      -1.82325100
O       -0.05535000       0.47535200      -1.39740300
C       -0.94330500       0.55328400      -0.41209100
C       -1.37127700       1.93147700      -0.05625300
C       -1.52891600      -0.63700500       0.11058400
O       -2.30620500      -0.67683700       1.04812000
H        2.19438900      -0.75235700       2.41331900
H        1.38281700      -1.88617400       1.31050500
H        2.77375300      -0.93399700       0.74210600
H        1.24339400      -0.28567200      -2.69884900
H        0.65824800      -1.45362600      -1.31375100
H        1.21801400      -0.13313200       1.06308200
H       -2.23465700       1.85947100       0.60334500
H       -0.58845500       2.48386600       0.47106300
H       -1.65317400       2.50688400      -0.94159500
H       -1.28715200      -1.56608400      -0.44862600
