17
Extracted from Q-Chem output
C       1.660215     -0.677680      0.831440
C       0.927551     -0.670380     -1.301055
O       0.135943      0.355066     -1.232787
C      -0.693144      0.401449     -0.119274
C      -1.099897      1.797018      0.240875
C      -1.695280     -0.653609     -0.047947
O      -2.601538     -0.696249      0.751966
H       1.745877     -0.075596      1.742608
H       1.516835     -1.718105      1.120057
H       2.614987     -0.575178      0.320036
H       1.713327     -0.570895     -2.042004
H       0.564136     -1.662151     -1.056827
H       0.471882     -0.169135      0.612532
H      -1.741680      1.743947      1.119716
H      -0.232884      2.416272      0.473646
H      -1.666732      2.279196     -0.560258
H      -1.573284     -1.465656     -0.800905
