10
Extracted from Q-Chem output
O      -1.764448     -0.400801      1.381720
C      -1.073932     -0.008895      0.253269
C      -0.150912     -0.819514     -0.350763
C       1.024349     -0.971883     -0.789250
C       1.866468     -0.003281     -0.142150
O       1.394810      1.097287      0.226785
H      -2.689089     -0.167120      1.289774
H       0.203778      0.811409      0.375647
H      -1.578551      0.707621     -0.395065
H       2.917511     -0.197919      0.072177
