13
Extracted from Q-Chem output
O       0.999296      0.505799     -1.109769
C       1.916350     -0.149619      0.172750
C       1.025057     -0.624132      1.135628
C      -0.196405     -0.673994      1.319813
C      -1.554065     -0.575314      1.236576
C      -1.571412      0.437620     -0.639319
O      -2.649522      0.667330     -0.963507
H       1.322763      1.369789     -1.392340
H       2.527202      0.705164      0.454898
H       2.478162     -0.892357     -0.385459
H      -2.068483      0.158496      1.848667
H      -2.132640     -1.459337      0.987721
H      -0.137750      0.525331     -0.937758
