13
smiles: [N:3](=[C:4]([H:9])[H:10])[H:8].[O:1]=[C:2]=[N:7][C:5](=[C:6]([H:12])[H:13])[H:11]
O        1.82440600       1.91851800      -0.20224700
C        0.70854500       1.77232300      -0.49549500
N        1.31200100      -0.89283500       0.91069800
C        1.31662900      -1.80832900       0.04421200
C       -1.61887900       1.06027600      -0.59269300
C       -1.81565200       0.23356000       0.42360000
N       -0.42091300       1.70160500      -0.89229400
H        2.26221300      -0.62636000       1.16543700
H        0.36425600      -2.19257700      -0.32269200
H        2.21998500      -2.25826200      -0.37994100
H       -2.41143900       1.30264400      -1.28883300
H       -2.78872700      -0.21498900       0.56725600
H       -1.03049200      -0.01470600       1.12700900
