13
Extracted from Q-Chem output
O       2.047300      2.089287      0.366127
C       1.233330      1.217791      0.203058
N       1.591340     -0.157144     -0.006516
C       0.450350     -0.967750      0.042520
C      -0.708220      0.169289     -0.373714
C      -1.908233     -0.099844      0.303236
N      -0.128005      1.368197      0.089825
H       2.292651     -0.311343     -0.713269
H       0.220540     -1.295122      1.053241
H       0.446471     -1.807703     -0.648257
H      -0.786476      0.098433     -1.466837
H      -2.821968     -0.404426     -0.196361
H      -1.948342      0.094467      1.368970
