15
Extracted from Q-Chem output
C      -1.935104      0.118894     -0.145088
C      -0.627229     -0.376504     -0.702051
C       0.477534      0.631488     -0.742341
C       0.345540      2.011621     -0.300806
N       0.200355      3.108214      0.008828
N       0.456349     -0.342656      0.362695
C       1.462264     -1.395720      0.445425
H      -1.861815      0.920992      0.610690
H      -2.533067      0.510862     -0.969623
H      -2.498628     -0.708709      0.289122
H       0.241303      0.095488      1.256521
H       1.287182      0.499882     -1.454461
H       1.588471     -1.809091     -0.551987
H       1.093268     -2.179094      1.106239
H       2.404940     -0.997070      0.823875
