15
Extracted from Q-Chem output
C      -2.010848      0.304640     -0.083208
C      -0.796827     -0.406839     -0.603059
C       0.433762      0.445278     -0.600886
C       0.317190      1.893284     -0.469785
N       0.219257      3.035363     -0.432826
N       0.551572     -0.260128      0.675160
C       1.655359     -1.232389      0.615782
H      -1.823265      1.068912      0.676694
H      -2.423959      0.820026     -0.958812
H      -2.764828     -0.397249      0.268946
H      -0.314190     -1.060296      0.445557
H       1.196617      0.196958     -1.337592
H       1.616679     -1.855071     -0.284921
H       1.614515     -1.866346      1.500275
H       2.590355     -0.671260      0.622288
