13
smiles: [C-:1]([N+:2]1=[C:3]([H:10])[C:4]([H:12])([H:13])[C:5]1=[O:6])([H:8])[H:9].[H:7][H:11]
C       -1.57858000       0.62642600      -0.50458400
N       -0.32632300       0.27349000      -0.36118900
C        0.50454200      -0.77521600      -0.51794900
C        1.75953200      -0.09179700      -0.04658100
C        0.80952000       1.08481100       0.11958000
O        0.81494300       2.21049800       0.46436000
H       -1.75770700      -1.21887400       1.45003000
H       -1.83538200       1.63999500      -0.24508300
H       -2.29671000      -0.09092900      -0.86732100
H        0.24009300      -1.75681800      -0.87041200
H       -1.24164200      -1.74051900       1.57623700
H        2.20900800      -0.42487600       0.89488300
H        2.55675100       0.09135700      -0.77445300
