12
Extracted from Q-Chem output
C      -1.375194      0.550130      0.146016
O      -1.629385      0.227374     -1.249948
C      -0.725887     -0.729443     -1.365180
C       1.735857      0.082928      0.035128
O       0.785068     -0.712198      0.716361
C      -0.477802     -0.705245      0.159603
H      -2.290112      0.561932      0.738990
H      -0.860046      1.506531      0.216234
H       1.883529     -0.268320     -0.989675
H       2.670561     -0.004480      0.585305
H       1.442990      1.139479      0.014587
H      -1.026152     -1.553387      0.582160
