12
Extracted from Q-Chem output
C      -1.339990      0.513489      0.107077
O      -0.905559      0.492657     -1.280040
C      -0.088441     -0.586458     -1.102337
C       1.490560      0.116979      0.031892
O       0.748620     -0.479569      1.068326
C      -0.453352     -0.718075      0.382876
H      -2.419377      0.375967      0.179292
H      -1.035287      1.428131      0.620704
H       1.087622     -0.503464     -1.242157
H       2.528511     -0.218024      0.028798
H       1.398456      1.204261     -0.032562
H      -0.952885     -1.610026      0.761694
