14
smiles: [C:1](=[C:6]([C:2](=[C:3]([H:10])[H:11])[H:9])[H:14])([H:7])[H:8].[C:4](#[C:5][H:13])[H:12]
C       -1.85564600       0.37137400       0.14531700
C       -0.17892000       0.71486200      -1.65010700
C        0.85988100       1.22880300      -1.00296000
C        1.93342900      -1.65561100       2.40257400
C        1.06483400      -1.46613500       1.60460300
C       -1.30805300       0.02347500      -1.01272500
H       -1.50999500       1.23919500       0.69610600
H       -2.67838600      -0.18954600       0.57079400
H       -0.20958300       0.78204600      -2.73469300
H        0.95771800       1.13726800       0.07332800
H        1.65450200       1.74219000      -1.52985300
H        2.70592300      -1.82482900       3.11565700
H        0.29111300      -1.29650400       0.89298000
H       -1.72175700      -0.82121600      -1.55763100
