12
Extracted from Q-Chem output
C       1.269929     -0.478296     -0.327172
C       1.107404      0.876767      0.319946
C      -1.143813      0.767783     -0.369455
O      -1.113603     -0.554894     -0.896299
C      -0.137125     -0.948413      0.068356
C      -0.214451      0.398883      0.833101
H       1.989804     -0.920277      0.383232
H       1.670816     -0.592696     -1.335151
H      -0.749387      1.515855     -1.067309
H      -2.142316      1.063050     -0.046655
H      -0.308721     -1.955410      0.448933
H      -0.595909      0.618882      1.825886
