16
Extracted from Q-Chem output
C      -1.937855      0.924629      0.165145
C      -1.508385     -0.521292      0.385442
C      -0.016431     -0.680038      0.673468
C       0.859159     -0.351245     -0.472802
C       2.890496      0.154335     -0.825629
O       2.083626     -0.865007     -0.476691
H      -1.451898      1.367009     -0.706855
H      -1.688843      1.543618      1.030718
H      -3.015417      0.993965      0.006868
H      -1.771387     -1.125257     -0.487980
H      -2.067604     -0.937781      1.227312
H       0.220011     -1.710978      0.965064
H       0.251094     -0.066506      1.548633
H       0.609851      0.310010     -1.289813
H       3.711828     -0.085601     -1.483314
H       2.799441      1.076982     -0.280558
