10
Extracted from Q-Chem output
N       1.749022     -0.343524      0.251188
C       0.412982     -0.045941      0.089209
C      -0.356170      1.056596      0.238260
N      -1.681646      0.698447      0.018622
C      -1.643366     -0.549554     -0.248607
O      -0.393160     -1.085920     -0.222856
H       2.088780     -1.042627     -0.390611
H       2.340451      0.470154      0.269916
H      -0.065847      2.063030      0.486716
H      -2.451046     -1.220662     -0.491837
