10
Extracted from Q-Chem output
O      -2.157909     -0.328567     -0.968158
C      -1.128071      0.372913     -0.706518
C      -0.043373     -0.386639     -0.109683
O      -0.403885     -1.602256      0.138829
C       1.255909      0.084147      0.216822
C       2.356656      0.495911      0.442104
H      -1.335082     -1.582817     -0.306650
H      -0.991709      0.695126      0.508124
H      -0.891487      1.325015     -1.194263
H       3.338193      0.855580      0.648150
