13
Extracted from Q-Chem output
C       2.237983      0.465659     -0.280154
C       0.955242      0.122214     -0.237698
N       0.300259     -0.547558     -1.303339
C      -0.867439     -0.837132     -0.901380
C      -1.184473     -0.374435      0.505349
O      -2.350086      0.405761      0.594357
N       0.030110      0.338037      0.789369
H       2.816215      0.217343     -1.156861
H      -1.366094     -1.216973      1.181983
H       2.716883      0.981746      0.540303
H      -1.590190     -1.351887     -1.526153
H      -2.187802      1.226718      0.119717
H       0.360106      0.391367      1.736243
