13
Extracted from Q-Chem output
C       1.818960     -0.167169      0.069108
C       0.857221      0.614987     -0.565806
N       0.212091     -0.021558     -1.609276
C      -0.906959     -0.393321     -1.057497
C      -0.934774     -0.007817      0.326927
O      -2.005094     -0.053209      1.152516
N      -0.077740      1.136361      0.328905
H       2.432242     -0.830140     -0.528924
H       0.440788     -0.833891      0.585926
H       2.248086      0.162358      1.009533
H      -1.631950     -1.022779     -1.561293
H      -2.824118     -0.043914      0.651431
H       0.312749      1.369670      1.230482
