16
smiles: [C:3]1([H:10])([H:11])[C:4]2([C:5]([H:12])([H:13])[N:6]2[H:14])[C:7]1([H:15])[H:16].[O:1]([C:2][H:9])[H:8]
O       -1.84715200       0.79721000       1.84568800
C       -2.55201700      -0.17590900       1.34161300
C       -0.32273300      -0.31364000      -1.43837900
C        0.69947700      -0.01363300      -0.42708700
C        1.51243000       1.08991400       0.05951400
N        0.61529800       0.33226200       0.96376300
C        0.84388200      -1.26798100      -1.18373000
H       -0.93585600       0.71106600       1.53880000
H       -3.56751700       0.01977000       1.75503600
H       -1.29958400      -0.62460200      -1.08977500
H       -0.32173600       0.25022200      -2.36265900
H        1.20607200       2.11304500      -0.12483800
H        2.58227400       0.93828800       0.15715700
H        1.16216000      -0.31548900       1.52017500
H        1.61778900      -1.34058700      -1.93802400
H        0.61495300      -2.19879300      -0.67866100
