12
Extracted from Q-Chem output
O       0.982195      2.352706      0.315410
C       0.486303      1.274573      0.287350
N       1.258856      0.060723      0.105862
C       0.462800     -0.960945     -0.126316
C      -0.985104     -0.659184      0.206317
O      -0.992790     -0.064766      1.534498
C      -0.938338      0.800673      0.415962
H       2.266415      0.057920      0.158153
H       0.866711     -1.947127     -0.315547
H      -0.483726     -1.219374     -1.752110
H      -1.172765     -1.209326     -1.183001
H      -1.746674      1.498614      0.238178
