18
Extracted from Q-Chem output
C      -2.353810      0.841419     -0.158221
C      -1.034952     -1.205830      0.429018
N       0.098372     -0.542166      0.513671
C       0.261593      0.827664      0.686738
C       0.840043      0.155191     -0.509178
C       2.288781     -0.238929     -0.681084
O       2.968800     -0.422705      0.534906
H      -3.067426      0.631296      0.638115
H      -2.633084      0.270826     -1.042343
H      -2.445476      1.900562     -0.415987
H      -1.637320     -1.301759      1.322845
H      -1.153870     -1.934635     -0.364358
H      -1.072381      1.048917      0.313970
H       0.819794      1.276155      1.497505
H       0.299134      0.317528     -1.445566
H       2.346107     -1.141512     -1.306032
H       2.806612      0.561407     -1.213287
H       2.450949     -1.020977      1.079801
