18
Extracted from Q-Chem output
C      -1.277093      1.057978     -0.228696
C      -0.439163     -0.173823      0.042351
C      -0.547404     -1.268850     -0.994212
C      -0.225064     -0.513137      1.362935
C       1.517762      0.496587     -0.588965
O       2.200813      1.024578      0.314905
H      -1.211832      1.367891     -1.273754
H      -0.958938      1.898046      0.391550
H      -2.332561      0.862258     -0.015934
H      -0.239983     -0.922462     -1.985172
H       0.061270     -2.136069     -0.733717
H      -1.585861     -1.602909     -1.080542
H       1.113486      0.116212      1.966707
H      -0.709341      0.046315      2.155216
H       0.061350     -1.526759      1.622693
H       1.804351     -0.491762     -0.973049
H       0.959384      1.138574     -1.277577
H       1.721859      0.530098      1.546193
