11
Extracted from Q-Chem output
C      -1.877416      0.499288      0.338854
N      -0.215995     -1.272339     -0.714091
C       0.279573     -0.244955     -0.168797
O      -0.469782      0.707163      0.392024
C       1.690736      0.055670     -0.067183
C       2.868020      0.259241     -0.007439
H      -2.150494     -0.416721      0.864048
H      -2.214741      0.423059     -0.695421
H      -2.317800      1.366585      0.823958
H       0.513063     -1.872637     -1.080293
H       3.914800      0.446408      0.050311
