19
Extracted from Q-Chem output
C       2.552580     -0.238431     -0.003394
C       1.565924      0.839196     -0.445542
C       0.182721      0.597776      0.045854
C      -0.973409      0.803900     -0.737200
C      -2.183801      0.210837     -0.071711
C      -1.644204     -1.231152      0.332557
O      -0.355783     -1.372401     -0.184140
H       2.572358     -0.326068      1.084501
H       2.259702     -1.207778     -0.405219
H       3.560960      0.000072     -0.343549
H       1.872806      1.809310     -0.034544
H       1.559786      0.941372     -1.533049
H       0.098793      0.428199      1.118003
H      -0.988770      1.505699     -1.560296
H      -0.552927     -0.376638     -1.096843
H      -3.031866      0.148532     -0.755029
H      -2.511902      0.751848      0.818235
H      -1.645624     -1.347309      1.422781
H      -2.302537     -2.001681     -0.080786
