14
Extracted from Q-Chem output
C      -1.446587     -0.959105     -0.372147
C      -1.658498      0.351487     -0.101683
C       0.144852      1.505376      0.355404
C       1.270699      1.001160      0.361703
C       1.625320     -0.917816     -0.031976
O       0.652040     -1.642861     -0.298507
H      -1.546925     -1.711939      0.394304
H      -1.348988     -1.313568     -1.386510
H      -1.837971      1.039655     -0.918143
H      -2.035538      0.637332      0.872376
H      -0.530623      2.322276      0.471274
H       2.289681      1.285199      0.537036
H       2.106913     -1.013092      0.955165
H       2.300567     -0.610455     -0.847484
