14
Extracted from Q-Chem output
N       1.888301      0.704459      1.387568
C       0.770572      0.083261      0.969472
O      -0.320404      0.739676      1.019220
C       0.743939     -1.207968      0.407302
C      -1.168586     -0.316484     -0.375520
C      -1.689778      0.733703     -1.225230
O      -0.969544     -0.433449     -1.701401
H       1.843868      1.673726      1.644247
H       2.729214      0.188020      1.556177
H       0.087702     -1.911263      0.903589
H       1.666342     -1.643684      0.035315
H      -1.740354     -1.035674      0.189062
H      -1.139714      1.663847     -1.297167
H      -2.739910      0.761703     -1.500922
