11
Extracted from Q-Chem output
N      -1.944672      0.198232      0.268921
C      -0.606232      0.080605      0.674182
N      -0.119411     -1.306934      0.489587
N       0.901669     -1.316712     -0.189031
C       1.256095      0.047927     -0.566560
N       2.242131      0.398158     -1.247651
O       0.333724      0.873806     -0.060868
H      -2.346779      1.090194      0.510524
H      -2.081597      0.001186     -0.712491
H      -0.512468      0.332499      1.733420
H       2.783594     -0.421744     -1.503795
