11
Extracted from Q-Chem output
N      -2.254181      0.230957      0.481698
C      -1.038572     -0.211750      0.036914
N      -0.707089     -1.366899     -0.399700
N       0.682828     -1.319072     -0.593481
C       1.036514     -0.128789     -0.288706
N       2.261786      0.467304     -0.403502
O       0.006750      0.650436      0.133208
H      -2.474841      1.183615      0.240943
H      -2.996101     -0.416508      0.270730
H       2.491209      1.109632      0.337210
H       2.991698     -0.198926     -0.596600
