11
Extracted from Q-Chem output
N      -1.824470      0.332978      0.584277
C      -0.594234      0.011928      0.120191
N      -0.260373     -1.342271     -0.029240
N       0.764944     -1.427904     -0.773479
C       1.066996     -0.071765     -1.045269
N       1.938869      0.509451     -0.239279
O      -0.065210      0.651800     -1.043649
H      -2.033104      1.306074      0.709828
H      -2.598288     -0.263327      0.346996
H       0.881937      0.435215      0.664977
H       2.677033     -0.143819      0.017944
