14
Extracted from Q-Chem output
C       1.925396     -0.331730     -0.472186
C       0.489788     -0.276851     -0.105510
C      -0.852264     -0.016620     -0.769852
C      -1.542632      1.056801      0.020225
C      -0.570673     -1.161862      0.185560
N      -0.126676     -0.223978      1.249554
C      -1.066413      0.887385      1.243657
H       2.364484      0.666206     -0.506881
H       2.045955     -0.795214     -1.452950
H       2.469919     -0.926267      0.262332
H      -0.997889     -0.184888     -1.830627
H      -2.251856      1.781291     -0.347388
H      -0.722835     -2.228838      0.248196
H      -1.256729      1.413922      2.165675
