11
Extracted from Q-Chem output
C      -1.557968     -1.076722     -0.441906
C      -0.559832     -0.623466      0.582369
C       0.498174      0.081982      0.325921
C       1.576709      0.768911      0.063259
C       1.668534      3.317985      0.063098
N       1.600826      2.154203      0.069354
H      -1.630212     -2.166325     -0.443824
H      -2.548253     -0.684118     -0.202370
H      -1.281706     -0.742242     -1.440333
H      -0.740595     -0.901428      1.618402
H       2.520446      0.293350     -0.174231
