12
smiles: [C:1]([C:2](=[O:3])[C:4]#[C:5][H:12])([H:8])([H:9])[H:10].[C:6]=[N:7][H:11]
C        0.15652800      -0.97362500      -0.37572800
C        0.26782900      -0.01300500       0.77529700
O       -0.32092600       1.03565800       0.82948400
C        1.15794200      -0.43228900       1.85899500
C        1.89245400      -0.79821000       2.73158100
C       -2.74737400       2.17420400      -2.07074600
N       -2.05110500       1.91285800      -1.17732700
H        1.14042200      -1.12056100      -0.82643600
H       -0.18164400      -1.94655800      -0.01341500
H       -0.54037000      -0.58270100      -1.11378600
H       -1.45466300       1.68958900      -0.41145000
H        2.54346100      -1.10618600       3.51654200
