12
Extracted from Q-Chem output
C      -0.870408     -1.388256      0.634230
C      -0.286914     -0.031582      0.624332
O      -0.998409      0.923706      1.087462
C       1.109729      0.108990      0.405394
C       2.306594      0.123848      0.369897
C      -0.534473      1.182368     -1.496479
N      -0.418359      2.289988     -1.151527
H      -0.763183     -1.793200     -0.373691
H      -0.300155     -2.027543      1.311187
H      -1.919573     -1.349541      0.913359
H      -0.697321      1.773174      0.649957
H       3.370128      0.172061      0.314084
