15
Extracted from Q-Chem output
C      -0.890265      1.363835     -0.294417
C       0.016915      0.202548      0.074272
C      -0.334569     -0.554204      1.363020
O       0.885530     -0.002884      1.936084
C       1.268053      0.643199      0.853580
C       0.351183     -0.653316     -1.139350
O       1.203234     -1.738154     -0.840556
H      -1.099683      1.998039      0.568694
H      -0.420361      1.986726     -1.057328
H      -1.843065      0.999174     -0.686383
H      -0.274038     -1.640921      1.325393
H      -1.210777     -0.223630      1.921642
H       0.785698     -0.008355     -1.912540
H      -0.565507     -1.086926     -1.548038
H       2.085165     -1.399147     -0.669329
