16
Extracted from Q-Chem output
C      -2.213606     -0.790412      1.340081
C      -1.006224     -0.260270      0.634002
C       2.340242      1.421026     -0.243953
C       1.188281      1.073087     -0.795296
C       0.788335     -0.327998     -1.139222
C      -0.432580     -0.831060     -0.415481
H      -1.995290     -0.989636      2.392636
H      -3.031286     -0.065010      1.318298
H      -2.569772     -1.716171      0.885487
H      -0.579983      0.658328      1.031325
H       2.575711      2.456107     -0.027608
H       3.092620      0.681187      0.009617
H       0.457314      1.844591     -1.027676
H       1.625634     -1.008848     -0.951455
H       0.594583     -0.385677     -2.216929
H      -0.854798     -1.755987     -0.804419
