11
Extracted from Q-Chem output
C       1.758875     -0.629180     -0.220490
N       0.570422     -1.098361     -0.327450
C      -0.547693     -0.455194     -0.012451
N      -0.427207      0.984254      0.366933
C      -1.850890     -0.834989     -0.339785
N      -2.962762     -1.070446     -0.564316
H       2.597864     -1.252847     -0.503031
H       2.001958      0.370420      0.162965
H       0.080488      1.094845      1.247736
H       0.090623      1.516706     -0.344642
H      -1.353952      1.390936      0.473387
