12
Extracted from Q-Chem output
N      -0.419835     -0.939816     -0.008330
C      -0.719588     -0.054140      0.976943
O      -1.527078     -0.177786      1.861686
C       0.193588      1.128042      0.716108
O       0.899802      0.812913     -0.469048
C       0.634202     -0.503258     -0.887369
O       0.296483     -0.552373     -2.222035
H      -0.445833      0.043238     -2.368684
H      -0.828458     -1.856208     -0.061285
H      -0.386951      2.042839      0.586372
H       0.880906      1.261034      1.555945
H       1.532420     -1.122040     -0.799878
