15
Extracted from Q-Chem output
C      -1.491382      0.019371      0.225358
C      -0.834279      0.981081      1.207418
O       0.739602     -2.017321     -0.558913
C       0.821249     -0.622608     -0.611214
C       1.122397      0.171609      0.664966
C       0.131359      1.294355      0.135929
C      -0.422882      0.226939     -0.862531
H      -1.834777     -0.968789      0.543832
H      -2.385324      0.597075     -0.045881
H       0.074655     -2.268008      0.085882
H       1.572211     -0.390982     -1.368074
H       0.755744     -0.314193      1.580560
H       2.132114      0.523460      0.856809
H       0.581686      2.261351     -0.062923
H      -0.736804      0.396554     -1.891016
