14
Extracted from Q-Chem output
C      -0.177671     -0.104212      1.877346
C      -0.918464     -0.473150     -1.711377
C       0.187144     -0.103987     -1.074754
C       0.256865      1.066421     -0.118052
O       0.715077      0.711791      1.155664
C       1.411185     -0.832619     -1.280705
N       2.393509     -1.405576     -1.440150
H      -0.308866     -1.084905      1.406537
H      -1.160555      0.374960      1.974165
H       0.251063     -0.242941      2.867893
H      -0.927708     -1.305657     -2.402686
H      -1.846533      0.063693     -1.554630
H       0.965312      1.805254     -0.497661
H      -0.736850      1.532488     -0.068932
