13
Extracted from Q-Chem output
O       1.483663     -0.032823      2.001508
C       0.810278     -0.003625      1.005459
C       1.428469     -0.297490     -0.350120
O       0.559891     -0.877785     -1.305495
C      -0.705553     -0.391815     -1.328701
C      -0.643828      0.406723      1.012139
C      -1.301347      0.232603     -0.322373
H       2.271474     -0.972879     -0.221157
H       1.802976      0.661116     -0.736593
H      -1.191900     -0.593068     -2.275005
H      -0.683554      1.445203      1.357510
H      -1.144797     -0.180504      1.787375
H      -2.315537      0.582268     -0.461254
