14
Extracted from Q-Chem output
C      -1.424617      0.980234     -0.607227
C      -0.896057     -0.375053     -0.157795
C       1.178847     -1.826021      0.183901
C       0.625121     -0.499905     -0.225146
N       1.335510      0.402705      0.663203
N       2.138419     -0.238600      1.410901
N       2.080852     -1.547047      1.159393
H      -2.514978      0.990580     -0.587220
H      -1.087851      1.790947      0.043956
H      -1.109617      1.212531     -1.627103
H      -1.216715     -0.596502      0.862998
H      -1.294289     -1.171661     -0.786516
H       0.980942     -0.322691     -1.250052
H       1.295670      1.406225      0.748460
