10
Extracted from Q-Chem output
N       1.767430     -0.292883     -0.185619
C       0.593685      0.341450      0.028641
N      -0.491522     -0.170006      0.794905
C      -1.540881     -0.650176     -0.043746
N      -2.061635      0.457075     -0.402320
N      -1.092625      1.154894      0.427912
N       0.115995      1.479451     -0.327629
H       2.067699     -0.924449      0.537114
H       2.495453      0.259334     -0.606857
H      -1.831763     -1.675921     -0.225553
