10
Extracted from Q-Chem output
N       1.826734     -0.155725     -0.157831
C       0.557757      0.255163      0.009052
N      -0.333256     -0.607855      0.672871
C      -1.569456     -0.628472      0.036010
N      -1.984407      0.523273     -0.364857
N      -1.063484      1.216143      0.359589
N       0.066641      1.397645     -0.379678
H       2.098918     -0.981488      0.344059
H       2.530977      0.515592     -0.401759
H      -2.108587     -1.555506     -0.120611
