17
Extracted from Q-Chem output
C      -2.254720     -0.339538      0.261569
C      -1.169673      0.264739     -0.563796
O      -0.532128      1.220480      0.118906
C       0.772900      1.478136     -0.365773
C       1.555808      0.167257     -0.261943
C       1.193990     -0.733106      0.880613
C       0.707851     -1.020095     -0.490164
H      -3.097734      0.356668      0.259726
H      -1.961515     -0.502664      1.305039
H      -2.594625     -1.275772     -0.178268
H      -0.408690     -0.466928     -1.143027
H       0.731640      1.814947     -1.405438
H       1.185557      2.266456      0.262335
H       2.575797      0.209723     -0.624147
H       0.492427     -0.341664      1.615138
H       1.960306     -1.376948      1.294613
H       1.012957     -1.890094     -1.057048
