19
smiles: [C:1]([C:2]([C@@:3]([O:4][H:14])([C:5](=[O:7])[H:15])[H:13])([H:11])[H:12])([H:8])([H:9])[H:10].[C:6]([H:16])([H:17])([H:18])[H:19]
C        2.55835800       0.12724500       0.87583000
C        1.20865300       0.62523700       1.37112400
C        0.05778700       0.13733600       0.49081300
O       -0.00533800      -1.25816300       0.45636200
C       -1.25095400       0.71270700       0.96978600
C       -1.90312800      -0.60840000      -2.49985700
O       -2.18571800       0.01863000       1.26898000
H        2.57348700      -0.96209700       0.83886200
H        2.77094400       0.50167100      -0.12840700
H        3.36147100       0.45848900       1.53550900
H        1.02965300       0.27522900       2.39225300
H        1.19505300       1.72004600       1.39652900
H        0.21000200       0.53074700      -0.52906300
H       -0.89920800      -1.50162000       0.73217900
H       -1.30962100       1.81590900       1.03616800
H       -1.09713000      -1.16349500      -2.02234600
H       -2.32423900      -1.20259200      -3.30941300
H       -1.51175800       0.32528900      -2.90097100
H       -2.67853600      -0.39185500      -1.76666300
