19
Extracted from Q-Chem output
C       2.372541      0.174887      1.309893
C       0.930379      0.613094      1.102832
C       0.264613     -0.125256     -0.060837
O       0.253053     -1.515869      0.124646
C      -1.174034      0.366177     -0.154186
C      -1.719495     -0.204374     -1.888733
O      -2.025569     -0.206849      0.696698
H       2.426247     -0.901187      1.476118
H       2.986397      0.409807      0.436712
H       2.813132      0.676468      2.172751
H       0.340113      0.427105      2.004811
H       0.886872      1.690365      0.910407
H       0.811666      0.082801     -0.985557
H      -0.517497     -1.681445      0.689574
H      -1.262421      1.450635     -0.307692
H      -1.033420     -0.996811     -2.165932
H      -2.754518     -0.526117     -2.085079
H      -1.563378      0.723622     -2.427664
H      -2.173070     -0.346148     -0.653929
