14
Extracted from Q-Chem output
O      -0.643667      0.877170      2.574335
C      -1.243777      1.119390      1.567685
C      -0.689042      0.969043      0.168487
O       0.658981      0.624591      0.113455
C       0.936953     -0.733890      0.372910
N       0.945419     -1.613979     -0.766898
C       0.797035     -1.147867     -1.925516
H       0.230758     -1.141926      1.101452
H      -2.294616      1.482201      1.594650
H      -1.336880      0.255752     -0.366140
H      -0.810846      1.933063     -0.337295
H       1.931383     -0.768740      0.820375
H       0.654255     -0.083916     -2.133053
H       0.820875     -1.832494     -2.770851
