18
smiles: [C-:6]#[O+:7].[C:1]([C:2](/[C:3]([C:4]([H:14])([H:15])[H:16])=[N:5]\[H:17])([H:11])[H:12])([H:8])([H:9])[H:10].[H:13][H:18]
C       -2.07876900      -0.72054100      -0.72074700
C       -1.34738800       0.44454300      -0.07623700
C       -0.06813800       0.09959100       0.65714000
C        0.63268700       1.26023200       1.30539000
N        0.43930800      -1.05599700       0.76032400
C        3.44921100      -1.28750000      -0.16952100
O        3.92273100      -0.78806700       0.71840600
H       -1.46261200      -1.21537300      -1.47458400
H       -2.37294500      -1.46775700       0.01953000
H       -2.98643300      -0.37345000      -1.21543800
H       -1.09998200       1.19850400      -0.83140200
H       -2.00579000       0.95815500       0.63258300
H        1.09866500       0.52735700      -2.46494000
H        0.88239200       2.02137200       0.56163900
H       -0.01652800       1.73631200       2.04475100
H        1.54341100       0.91881500       1.79204400
H       -0.12762800      -1.75293500       0.28016800
H        1.27401700       0.01644000      -1.95251000
