18
Extracted from Q-Chem output
C      -1.739648     -0.884554     -0.836853
C      -1.302588      0.322787     -0.020759
C       0.147636      0.307290      0.425576
C       0.678715      1.585431      1.025034
N       0.748541     -0.809458      0.808975
C       2.162119     -1.143593     -0.277699
O       3.049595     -1.782846      0.064669
H      -1.095946     -1.022993     -1.708371
H      -1.723970     -1.808430     -0.254189
H      -2.762172     -0.753460     -1.192226
H      -1.476959      1.237314     -0.592020
H      -1.923048      0.410546      0.879082
H       0.842435      0.539718     -1.015207
H       0.402268      2.455919      0.429055
H       0.272119      1.712429      2.032197
H       1.764688      1.539444      1.110752
H       0.192637     -1.633719      0.592887
H       1.512907     -0.001641     -1.165475
