13
Extracted from Q-Chem output
O      -0.997920      1.279594      0.648528
C      -0.684600      0.024438      0.688300
C      -1.374272     -0.742218     -1.227507
C      -0.227792     -0.681678     -0.452841
O       1.193368      0.294255     -1.084994
C       2.030445      0.524472     -0.134824
O       1.835646      0.331786      1.058122
H      -0.638274      1.667280     -0.165701
H      -0.851024     -0.457302      1.643446
H      -1.594625     -1.627474     -1.807640
H      -2.052234      0.093533     -1.318611
H       0.297108     -1.605747     -0.252456
H       2.994438      0.941340     -0.485064
