15
Extracted from Q-Chem output
C      -2.227645      0.124364      0.045143
C      -0.721603      0.260657     -0.065585
O      -0.197105      1.010349      1.033356
C      -0.059429     -1.102322     -0.207168
C       2.160603      0.095934     -0.273482
N       1.238888     -1.046192     -0.279938
H      -2.704305      1.103553      0.117147
H      -2.620473     -0.404094     -0.824150
H      -2.488139     -0.469377      0.925971
H      -0.486550      0.853373     -0.961427
H      -0.512799      0.596427      1.840188
H       1.696538      0.963886     -0.734754
H       2.437265      0.362531      0.745359
H       3.053239     -0.175513     -0.836926
H       1.705601     -1.938044     -0.356141
