12
Extracted from Q-Chem output
C      -1.296143      0.500211      0.167233
C       0.066103      1.038350     -0.187558
C       1.164603      0.340029     -0.166590
C       2.258297     -0.361759     -0.142820
O      -1.878150     -1.650778      1.047437
C      -1.363691     -1.005379      0.177893
H      -1.635144      0.875935      1.134921
H      -2.020191      0.842676     -0.582357
H       0.128266      2.086186     -0.466164
H       2.855736     -0.430558      0.758856
H       2.603105     -0.893542     -1.022033
H      -0.912479     -1.500888     -0.706300
