12
Extracted from Q-Chem output
C      -1.157352      0.468072      0.054775
C       0.235183      0.996239     -0.107964
C       1.322252      0.272376      0.118056
C       2.086993     -0.748292      0.572480
O      -0.522830     -1.835634     -0.316027
C      -1.370840     -1.013698     -0.105350
H      -1.576131      0.722078      1.039752
H      -1.835799      0.949816     -0.659077
H       0.346226      2.028519     -0.408639
H       2.385624      0.741659      0.078350
H       2.493533     -1.344833     -0.256076
H      -2.433055     -1.322562     -0.006334
