10
Extracted from Q-Chem output
O       2.397605      0.059681     -0.255742
C       1.047791      0.101368     -0.245890
N       0.362433     -1.041495     -0.385751
N      -0.897832     -0.760469     -0.342604
C      -1.079772      0.672558     -0.173449
C       0.268048      1.258846     -0.098972
H       2.676488     -0.852579     -0.373574
H      -1.573434     -1.496431     -0.452002
H      -1.660554      0.885166      0.730282
H      -1.634121      1.088819     -1.022142
