16
Extracted from Q-Chem output
C       2.736922      0.392277      0.099524
O       1.399367      0.733850      0.366164
C       0.544517     -0.371870      0.354279
C      -0.866032      0.154742      0.585869
C      -2.384252      0.722494     -1.960234
C      -1.837281     -0.929685      0.686831
N      -2.588539     -1.793997      0.755689
H       3.317321      1.312560      0.127306
H       2.839993     -0.066682     -0.891531
H       3.129351     -0.303152      0.852142
H       0.814059     -1.089265      1.142249
H       0.593552     -0.899236     -0.608530
H      -0.896552      0.745820      1.502982
H      -3.382945      0.755771     -1.479255
H      -1.136346      0.830892     -0.241350
H      -2.303565     -0.345826     -2.246883
