13
Extracted from Q-Chem output
O       2.626162     -0.247131      0.725824
C       1.694975     -0.019759     -0.148104
C       0.492336     -0.884635      0.076100
C      -0.827095     -0.178147     -0.112191
N      -0.959914      1.105797      0.564366
C      -0.967007      1.064336     -0.897427
H       2.366387     -0.892935      1.415810
H      -0.090389      1.491203     -1.366130
H       0.504200     -1.393237      1.059049
H       0.595536     -1.663737     -0.693317
H      -1.689956     -0.837962     -0.096746
H      -1.894566      1.234029      0.929770
H      -1.907476      1.226578     -1.412489
