15
Extracted from Q-Chem output
C      -2.206658     -0.493789      0.655798
C      -0.953749     -0.223427     -0.135975
O      -0.969315     -0.087000     -1.334036
C       0.342404     -0.129290      0.645094
C       1.572522     -0.137016     -0.245204
C       1.649034      1.035446     -1.196064
O       2.373596      1.068663     -2.149477
H      -2.251436      0.136518      1.546092
H      -3.084154     -0.333072      0.033864
H      -2.194566     -1.532386      0.996959
H       1.013429      1.910168     -0.939378
H       0.293269      0.792563      1.238158
H       0.377790     -0.940764      1.376839
H       2.477054     -0.099367      0.370426
H       1.632609     -1.049862     -0.839713
