17
smiles: [H:8][H:10].[O:1]=[C:2]([C@@:3]1([H:11])[C:4]([H:12])([H:13])[C:5]([H:14])([H:15])[C:6]([H:16])=[C:7]1[H:17])[H:9]
O        1.73028200      -1.47312800       0.55716400
C        1.79076800      -0.64627700      -0.30961800
C        0.60439900      -0.07284000      -1.05603500
C       -0.75873400      -0.58285700      -0.56501900
C       -1.31382700       0.52821300       0.34773100
C       -0.49539200       1.73173500      -0.03104900
C        0.53743900       1.41919500      -0.80012600
H       -0.02936500      -2.08614900       2.41368300
H        2.77311900      -0.22677800      -0.61592700
H       -0.56162300      -2.22230900       2.91620400
H        0.78165100      -0.28542400      -2.11737300
H       -0.66400900      -1.53914400      -0.05268600
H       -1.41949600      -0.72250900      -1.42143300
H       -2.38390900       0.68896100       0.20042300
H       -1.17351700       0.29508300       1.40796900
H       -0.72267900       2.73332900       0.31360900
H        1.27844300       2.11637100      -1.17139200
