17
Extracted from Q-Chem output
O       1.654192     -0.587567      1.292760
C       1.409270     -0.434156      0.023092
C       0.113785     -0.896740     -0.464024
C      -1.098733     -0.531598      0.304642
C      -1.434142      0.936254     -0.043317
C      -0.164447      1.674748     -0.313788
C       1.014763      1.079708     -0.403926
H       0.970954     -2.045833      1.134807
H       2.215758     -0.702995     -0.683611
H       0.498767     -2.480695      0.614369
H      -0.000657     -1.128225     -1.523045
H      -0.871593     -0.611299      1.366712
H      -1.932625     -1.188321      0.056927
H      -2.064731      0.984066     -0.937586
H      -2.006580      1.394825      0.765745
H      -0.224568      2.744740     -0.488342
H       1.902786      1.620310     -0.706041
