17
Extracted from Q-Chem output
C      -1.688984     -0.437411     -0.047271
C      -0.674445     -1.253404      0.441178
O       0.291073     -1.654214     -0.479148
C       1.426639     -0.771172     -0.430055
C       1.172109      0.317404      0.610443
C       0.386012      1.443162      0.296742
C      -0.588745      1.333436     -0.670044
H      -2.504596     -0.188700      0.623713
H      -1.948022     -0.482622     -1.093422
H       0.176555     -0.373780      1.124487
H      -0.841904     -1.917789      1.287334
H       2.308514     -1.360089     -0.165525
H       1.581410     -0.354540     -1.429995
H       1.931086      0.434670      1.378196
H       0.324562      2.236355      1.035434
H      -0.359801      0.779357     -1.571333
H      -1.315796      2.126624     -0.802369
