14
Extracted from Q-Chem output
O      -2.625903     -0.714751      0.090894
C      -1.425385     -0.071227     -0.300110
C       1.306017      1.625046      0.113806
C       1.559650      0.392980      0.541836
C       0.976341     -0.842612      0.009790
C      -0.284912     -1.038533     -0.374933
H      -2.493261     -1.088450      0.964270
H      -1.631467      0.352581     -1.286693
H       1.782511      2.485342      0.567446
H       0.641557      1.815394     -0.720888
H       2.287879      0.260360      1.338432
H       1.655126     -1.689144     -0.049539
H      -0.562869     -2.018462     -0.754451
H      -1.185326      0.762579      0.369594
