14
Extracted from Q-Chem output
O      -2.710774     -0.251872     -0.348100
C      -1.397524     -0.035810     -0.445753
C       1.145443      1.693048     -0.030056
C       1.650891      0.440189      0.203481
C       1.012797     -0.793412      0.165049
C      -0.440684     -0.967245      0.110131
H      -2.888456     -1.123398      0.022636
H      -1.171630      0.891083     -0.940707
H       1.758469      2.558702      0.186074
H       0.176970      1.906327     -0.444997
H       2.696632      0.403225      0.502271
H       1.574826     -1.689803      0.386623
H      -0.728090     -1.999203     -0.129632
H      -0.691908     -0.852255      1.191392
