14
Extracted from Q-Chem output
C      -1.754345      0.514856     -0.428575
C      -0.302779      0.076088     -0.442013
C       0.759070      1.088315     -0.321428
C       1.823831      0.343655      0.349327
O       1.507593     -1.035771      0.498158
C       0.098610     -1.108092      0.447562
H      -2.420256     -0.303285     -0.709416
H      -1.909591      1.344662     -1.116931
H      -2.038336      0.849302      0.570896
H      -0.008273     -0.191622     -1.485719
H       1.818725      0.866215      1.333366
H       2.828901      0.459982     -0.057438
H      -0.340494     -0.993519      1.450633
H      -0.189440     -2.082457      0.052328
