14
Extracted from Q-Chem output
C      -1.795422      0.459485     -0.481954
C      -0.348919      0.162250     -0.213826
C       0.713480      1.072610     -0.332857
C       1.857397      0.328425      0.273599
O       1.467987     -1.018826      0.590225
C       0.065986     -1.075093      0.563230
H      -2.303210     -0.377127     -0.965315
H      -1.892601      1.354472     -1.094226
H      -2.295864      0.642912      0.471232
H       0.236057      0.215104     -1.303338
H       2.110004      0.884221      1.189700
H       2.753864      0.292333     -0.346786
H      -0.370237     -1.021748      1.572829
H      -0.258440     -2.012551      0.104533
