11
Extracted from Q-Chem output
O       1.690020      1.282701      0.318113
C       0.706233      0.440146     -0.059979
N       0.356161     -0.715253      0.735028
C      -0.987112     -0.737098      0.077243
C      -0.613363      0.532981     -0.672768
O       0.581399      0.201465     -1.426123
H       0.938661     -1.523964      0.546013
H      -1.171819     -1.605029     -0.557443
H      -1.790951     -0.611034      0.802274
H       1.661026      1.341234      1.277040
H      -1.214742      1.358505     -1.021456
