18
Extracted from Q-Chem output
C      -0.525427      0.873001     -0.922755
C      -0.644219     -0.595893     -0.564584
C      -1.966349     -1.038268      0.053689
C       0.566491     -0.778349      0.334126
C       1.683245     -0.162608     -0.423736
O       1.880551      1.927580     -0.407233
H      -0.996878      1.156322     -1.866472
H       0.917873      1.650505     -0.746451
H      -0.915954      1.505341     -0.115513
H      -0.474177     -1.195065     -1.468950
H      -2.161120     -0.487576      0.978131
H      -1.976786     -2.107056      0.287089
H      -2.794119     -0.836207     -0.628677
H       0.410482     -0.242972      1.277011
H       0.843330     -1.809337      0.612061
H       1.697059     -0.339291     -1.491039
H       2.656561     -0.109746      0.047030
H       2.395387      2.203356     -1.174985
