11
Extracted from Q-Chem output
C       1.276335     -0.364609     -0.127786
C       0.154161      0.240788      0.660035
O      -0.484302      1.411018      0.113606
C      -1.238108      0.233556      0.215732
O      -1.678328     -0.347669     -0.947612
H       2.160331      0.273642     -0.085759
H       1.539191     -1.338311      0.289857
H       1.017858     -0.507412     -1.177701
H       0.340103      0.320649      1.729918
H      -1.031928     -0.185712     -1.639496
H      -2.048065      0.247190      0.939048
