11
Extracted from Q-Chem output
C       1.258781     -0.404618     -0.073147
C       0.090996      0.432402      0.436910
O      -0.244926      1.520767     -0.330378
C      -1.255504     -0.164635      0.271480
O      -1.727254     -0.248621     -0.910296
H       2.147063      0.228162     -0.070230
H       1.448504     -1.281131      0.552195
H       1.080899     -0.731046     -1.100352
H       0.246266      0.662146      1.504465
H      -1.090594      0.433835     -1.344196
H      -1.941920     -0.457888      1.068008
