10
Extracted from Q-Chem output
N       1.804801     -0.095675     -0.333345
C       0.578442     -0.489324      0.152906
C      -0.529432      0.338806     -0.302311
C      -1.797858      0.300902      0.349674
N      -1.999431     -0.751656      0.982389
O       0.469641     -1.437185      0.909693
H       2.596193     -0.544015      0.094888
H       1.941677      0.844718     -0.655837
H      -0.486740      0.813459     -1.276385
H      -2.592212      1.011346      0.087944
