13
Extracted from Q-Chem output
C      -1.761302     -0.281630     -0.312451
C      -0.548139      0.065710      0.524551
O       0.422343     -1.008509      0.439316
C       1.521110     -0.440256      0.022344
O       2.524049     -1.257186     -0.110709
C       1.547899      0.963896     -0.245505
C       0.260626      1.248200      0.074659
H      -2.227004     -1.201673      0.041083
H      -2.492239      0.524671     -0.238533
H      -1.482030     -0.400972     -1.359839
H      -0.818247      0.136070      1.583067
H       3.258164     -0.706906     -0.420900
H      -0.212374      2.225729      0.032096
