13
Extracted from Q-Chem output
C      -1.748496     -0.255795     -0.318078
C      -0.526856      0.028866      0.526823
O       0.369008     -1.136294      0.489214
C       1.502654     -0.658809      0.073667
O       2.595234     -1.248630     -0.123280
C       1.596030      0.740921     -0.225053
C       0.356264      1.168327      0.052959
H      -2.283936     -1.128635      0.055265
H      -2.420722      0.602867     -0.279463
H      -1.465542     -0.426987     -1.357334
H      -0.805742      0.145520      1.578374
H       2.881219     -0.070315     -0.436711
H      -0.053296      2.169767     -0.020415
