12
Extracted from Q-Chem output
C      -2.009370      0.750581      0.034257
C      -1.302653     -0.601995     -0.073734
C       0.150079     -0.477486     -0.088597
C       1.345505     -0.349391     -0.097691
C       2.714094     -0.203177     -0.107482
C       3.907071     -0.071121     -0.115289
H      -3.091351      0.612632      0.039779
H      -1.722837      1.264922      0.951838
H      -1.748552      1.392322     -0.807655
H      -1.618306     -1.120675     -0.983146
H      -1.588218     -1.245216      0.763218
H       4.964538      0.048603     -0.122051
