15
smiles: [C:1]1([H:7])([H:9])[C@:2]2([H:10])[N:3]([H:11])[C@:4]2([H:12])[C:5]1([H:13])[H:14].[O:6]([H:8])[H:15]
C       -1.21447100      -0.17726100       0.53846200
C       -0.87117800      -0.21873700      -0.94568600
N        0.48039800       0.34367000      -1.07007500
C        0.31668100      -1.06493000      -0.68663600
C        0.03684000      -1.06761300       0.81171800
O        1.10637900       2.35751500       0.88908200
H       -2.14477900      -0.69161000       0.77723000
H        2.04382000       2.33194900       1.08499400
H       -1.21811000       0.81768400       0.98399900
H       -1.55007000      -0.21274000      -1.78771800
H        0.71501800       0.37121800      -2.05770700
H        0.75280900      -1.85427500      -1.28387500
H        0.82505400      -0.63495600       1.42802800
H       -0.23426300      -2.05099000       1.19446200
H        0.97739000       1.72833900       0.17830200
