15
Extracted from Q-Chem output
C      -1.362102      0.435469      0.398718
C      -0.890083     -0.213060     -0.832213
N       0.347219      0.393739     -1.347226
C       0.410922     -0.875347     -0.594272
C       0.826373     -0.756564      0.805120
O       1.205967      1.251283      1.232708
H      -1.960940     -0.200795      1.049023
H       0.209897      1.202631      1.233608
H      -1.800329      1.423817      0.265292
H      -1.550712     -0.644076     -1.583964
H       0.450618      0.181041     -2.334570
H       0.794732     -1.727986     -1.151626
H       1.870537     -0.912998      1.050997
H       0.120528     -1.047301      1.567272
H       1.348891      1.467409      0.295708
