14
Extracted from Q-Chem output
C      -2.365223      0.519913     -0.171080
O      -1.004501      0.279245     -0.462528
C      -0.407506     -0.659378      0.309001
C       0.907847     -0.834269      0.351798
C       1.912966      0.001845     -0.374424
O       2.873149      0.563141      0.509971
H      -2.950853     -0.403213     -0.231051
H      -2.484674      0.959133      0.824391
H      -2.729130      1.222467     -0.917800
H      -1.083519     -1.291394      0.881838
H       2.397139      1.055947      1.181319
H       1.283882     -1.635948      0.976441
H       1.408353      0.780344     -0.955078
H       2.489063     -0.610999     -1.071033
