19
Extracted from Q-Chem output
C       2.492400      0.371678      1.222278
C       1.815832     -0.142793     -0.026854
O       0.523801     -0.677248      0.276498
C      -0.430603     -1.091190     -1.093858
C      -0.539874      0.277457      0.566331
C      -1.569875     -0.441785     -0.280790
C      -2.513253      0.439290     -1.078671
H       2.595748     -0.419632      1.965614
H       1.937887      1.199468      1.668730
H       3.488806      0.738308      0.970850
H       2.360619     -0.973568     -0.474252
H       1.687876      0.627081     -0.792589
H      -0.438207     -2.181434     -0.954490
H      -0.264851      1.250303      0.150535
H      -0.697257      0.350541      1.642754
H      -2.151806     -1.131868      0.343873
H      -3.132661     -0.169465     -1.740123
H      -3.183977      1.011885     -0.431412
H      -1.943247      1.129500     -1.703751
