15
Extracted from Q-Chem output
C      -0.625564     -1.628458     -0.704941
C       0.323931     -0.587734     -0.108787
C       0.843102      0.488559     -1.098708
C       0.981465      1.680816     -0.251434
C       0.764596      2.410590      0.715054
C      -0.315968      0.182461      0.967902
C      -0.898963      0.746404      1.923224
H      -1.511841     -1.150423     -1.123760
H      -0.109641     -2.159595     -1.505829
H      -0.940912     -2.361928      0.037603
H       1.188632     -1.085943      0.339239
H       1.768703      0.149392     -1.567766
H       0.110256      0.655121     -1.893642
H      -0.308581      1.825519      1.790491
H      -1.647204      0.499869      2.656438
