14
Extracted from Q-Chem output
C      -1.836219     -1.000368     -0.196824
C      -0.656762     -0.172815     -0.676120
C       0.375371      0.087999      0.390716
O       0.269864     -0.312925      1.525255
C       1.598710      0.897317      0.004956
O       2.459973      1.070676      1.084189
H      -2.548680     -1.158513     -1.006915
H      -2.352405     -0.503895      0.624830
H      -1.507005     -1.973620      0.167217
H      -0.984772      0.799186     -1.060057
H      -0.147285     -0.656605     -1.516402
H       1.259211      1.865845     -0.386501
H       2.044739      0.612233      1.828515
H       2.104421      0.381439     -0.822598
