14
Extracted from Q-Chem output
C      -1.182190     -1.085254     -0.116424
C      -0.747663      0.263883     -0.672020
C       0.424079      0.886099      0.090672
O       0.090600      1.142319      1.423040
C       1.649943      0.010914      0.011081
O       2.240724     -0.361679      0.989323
H      -2.067786     -1.452071     -0.636453
H      -1.422069     -1.002687      0.943908
H      -0.399578     -1.840554     -0.226417
H      -1.575617      0.974181     -0.623350
H      -0.471004      0.178405     -1.728005
H       0.699580      1.826031     -0.416259
H       0.774914      0.730168      1.966815
H       1.986067     -0.269754     -1.005910
