11
Extracted from Q-Chem output
C      -0.898394     -0.864952      0.438272
C      -0.472742      0.570233      0.164769
C       0.967912      0.649020     -0.348855
C       1.055287      1.148599     -1.549323
C       2.069099      0.197279      0.428725
N       2.938092     -0.176072      1.080046
H      -0.241432     -1.339572      1.168636
H      -0.877623     -1.458088     -0.476442
H      -1.914390     -0.880662      0.834727
H      -0.522080      1.186625      1.064616
H      -1.129536      1.036189     -0.574617
