11
smiles: [C:3](=[N:4][C:6](=[C:5]([H:9])[H:10])[H:11])([H:7])[H:8].[O+:1]#[C-:2]
O       -2.12679100       2.02372600       0.48102800
C       -1.38604100       2.28556400       1.28403300
C       -0.83322700      -1.39170500      -0.66936700
N        0.08565400      -1.51470000       0.18404500
C        1.47284800       0.42354600      -0.22575700
C        0.80102800      -0.38130300       0.58834800
H       -1.35489900      -2.28011700      -1.01934500
H       -1.13982500      -0.42094000      -1.07470000
H        1.49663800       0.25334200      -1.29581000
H        2.05444000       1.24550500       0.16883200
H        0.83725000      -0.24973500       1.66546200
