11
Extracted from Q-Chem output
O      -1.655259      1.458834      0.945859
C      -0.889337      0.662625      0.499792
C      -0.997385     -0.496276     -0.497379
N       0.330256     -1.002610     -0.031252
C       1.273627      0.036026     -0.377792
C       0.483845      0.201703      0.868441
H      -1.799963     -1.178504     -0.216843
H      -1.051498     -0.274161     -1.564125
H       1.070898      0.674191     -1.232736
H       2.311198     -0.246377     -0.250162
H       0.923619      0.164550      1.856195
