18
smiles: [C:1](=[C:2]([H:10])[H:11])([H:7])[H:8].[C:3]([C:4]([H:12])([H:13])[H:14])([C:5]([H:15])([H:16])[H:17])=[O:6].[H:9][H:18]
C        1.77436800      -1.00552100      -0.25819500
C        1.74527300      -1.71486000       0.85693000
C       -1.24157300       0.46676600      -0.29519600
C       -1.98938700      -0.62834000       0.42716400
C       -0.67559100       1.57392200       0.56177300
O       -1.10407900       0.45780100      -1.49246600
H        1.32717600      -1.37040700      -1.17585400
H        2.24817300      -0.03140700      -0.30027500
H        1.63282300       1.81755300      -2.80888600
H        2.19231900      -1.34993000       1.77464300
H        1.27133300      -2.68890800       0.89901700
H       -1.28674900      -1.21150500       1.02807400
H       -2.47889700      -1.28314900      -0.29005400
H       -2.72551600      -0.20733400       1.11534800
H       -0.12588700       1.16494100       1.41205500
H       -1.49691100       2.17023000       0.96780500
H       -0.02785300       2.21293800      -0.03396700
H        0.98903400       1.53476000      -2.56403100
