18
Extracted from Q-Chem output
C      -1.862205      0.757447      0.644304
C      -0.788624     -0.013880     -0.112426
C      -1.275652     -1.450238     -0.440871
C       0.413998     -0.320453      0.683806
C       1.640434     -0.355086     -0.134861
C       2.228712      1.060469      0.082270
H      -1.516235      1.760789      0.898424
H      -2.770504      0.854356      0.043707
H      -2.108366      0.244936      1.575783
H      -0.569357      0.478421     -1.075211
H      -0.560191     -2.002231     -1.051603
H      -1.463305     -2.016047      0.472829
H      -2.210569     -1.372563     -0.997627
H       2.425790      1.245446      1.137863
H       2.363309     -1.083200      0.237831
H       1.483912     -0.507971     -1.214015
H       1.552260      1.835755     -0.281953
H       3.164603      1.142058     -0.469831
