13
smiles: [C:2]1([H:7])=[C:5]([H:13])[C:4]([H:10])([H:11])[C:3]1([H:8])[H:9].[O:1]([H:6])[H:12]
O        2.06628300       1.56206800      -0.05742200
C        0.17386800      -1.16923000      -0.45568800
C       -0.25870000      -0.86650900       0.96032400
C       -1.18789900       0.21113400       0.32002500
C       -0.62019400      -0.25127000      -1.00213100
H        1.85152100       2.33877100      -0.57554300
H        0.87866900      -1.88357700      -0.86364000
H        0.51656800      -0.47203100       1.62032200
H       -0.78269000      -1.67359800       1.47668400
H       -0.95690600       1.24107200       0.60005600
H       -2.25666700       0.03883700       0.46401600
H        1.54770500       0.85147800      -0.43676200
H       -0.80468500       0.06131000      -2.02279200
