15
Extracted from Q-Chem output
C      -1.416993      0.876409     -0.316205
C       0.030592      0.630539      0.078103
C       0.215986      0.019713      1.453630
O       1.452430     -0.766075      1.336361
C       1.845977     -0.994972      0.130717
C       0.797688     -0.360786     -0.792983
O      -0.040733     -1.450242     -1.150131
H      -1.900928      1.565849      0.378350
H      -1.476117      1.313292     -1.313974
H      -1.978198     -0.057742     -0.325245
H      -0.573827     -0.683413      1.721174
H       0.367806      0.731053      2.262884
H       0.584924      1.573467      0.043232
H       1.241009      0.102192     -1.679325
H       0.527637     -2.179629     -1.417239
