14
Extracted from Q-Chem output
O      -0.281882      1.645611     -0.447904
C      -0.283533      0.266248     -0.225404
C       1.172995     -0.341882     -0.828833
C       1.918826     -0.240543      0.408126
N       1.490277     -0.090062      1.515719
C      -1.479087     -0.335014     -0.642165
C      -0.245790     -0.096947      1.237131
H       0.443950      2.034588      0.047346
H       1.090099     -1.379224     -1.153978
H       1.488651      0.292982     -1.653052
H      -2.259440      0.241934     -1.120865
H      -1.592012     -1.406668     -0.567104
H      -0.470545     -1.129714      1.480162
H      -0.734271      0.615828      1.896169
