13
Extracted from Q-Chem output
C       2.109031     -0.154923      0.168939
C       0.663258     -0.030153     -0.127154
N       0.104023      0.953210     -0.754623
C      -1.264294      0.676249     -0.841656
C      -1.414718     -0.699583     -0.269770
O      -0.118155     -1.015784      0.301605
H       2.253826     -0.203978      1.249472
H       2.638432      0.701319     -0.238429
H       2.502000     -1.078351     -0.258115
H      -1.841637      1.625249      0.644727
H      -2.004443      1.609923     -0.204965
H      -1.566050     -1.398791     -1.097645
H      -2.192525     -0.842274      0.473877
