15
Extracted from Q-Chem output
C       1.419254     -0.971945      0.050001
C       0.762187      0.285698      0.558118
C       0.271087      1.340720     -0.392175
C      -0.712565      0.541286      0.413763
C      -1.645762     -0.440714     -0.246888
H       1.000822     -1.294202     -0.904605
H       1.300878     -1.795550      0.758367
H       2.489092     -0.812997     -0.102336
H       1.196164      0.662438      1.478551
H       0.428698      2.383362     -0.147975
H       0.336825      1.117662     -1.451488
H      -1.160410      1.069639      1.249148
H      -2.556482      0.059905     -0.583011
H      -1.192548     -0.908488     -1.122008
H      -1.937240     -1.236815      0.442536
