12
Extracted from Q-Chem output
C      -1.795668     -0.118568      0.313331
C      -0.821534      0.452854     -0.624783
C       1.391733      0.683087     -0.044623
C       1.989955     -0.607622      0.195290
O       2.966581     -1.207269      0.507810
O       0.763949     -0.951917     -0.123942
H      -1.681228      0.220570      1.343403
H      -1.929981     -1.203975      0.273142
H      -2.726584      0.336492     -0.071278
H      -0.857207     -0.101644     -1.571899
H       1.520966      1.180206     -0.993326
H       1.038371      1.279987      0.782060
