12
Extracted from Q-Chem output
O      -1.521231      0.261230      0.107550
C      -1.048822     -1.099809      0.143052
C       0.360091     -0.631389     -0.280749
C      -0.269351      0.746101     -0.180115
C       0.130413      1.993607     -0.302417
C       1.462930     -0.934963      0.615498
N       2.326662     -1.189710      1.325562
H      -0.563182      2.812117     -0.169213
H      -1.110986     -1.520477      1.146609
H      -1.573619     -1.728780     -0.575148
H       0.628744     -0.909646     -1.299697
H       1.165433      2.205812     -0.527179
