13
Extracted from Q-Chem output
N       1.527828      0.884400     -0.254837
C       0.634844      0.515529      0.672398
C       0.110131     -0.831531      0.665591
O       0.854005     -1.874568      1.074054
C      -0.974823     -0.752554     -0.143940
C      -1.105529      0.640111     -0.524554
N      -0.459599      1.365003      0.519976
H       0.413239      0.782354     -1.174446
H       2.234648      0.169270     -0.409580
H       0.437520     -2.694048      0.796083
H      -1.525123     -1.564406     -0.598791
H      -2.030261      1.028111     -0.944136
H      -0.142320      2.280561      0.229255
