12
Extracted from Q-Chem output
C      -1.573489      0.294764      0.564100
N      -0.009935     -0.410257     -1.201652
C       1.137731     -0.888005     -0.926536
C       1.683732     -0.247003      0.285448
N       0.862538      0.614568      0.738093
C      -0.272013      0.578263     -0.169443
H      -2.403331      0.289016     -0.141246
H      -1.522732     -0.679427      1.052554
H      -1.746580      1.057735      1.321653
H       1.613199     -1.658388     -1.523937
H       2.639682     -0.452739      0.754714
H      -0.331819      1.556967     -0.660357
