13
smiles: [C:3](=[C:4]([H:9])[H:10])([H:7])[H:8].[C:5](=[N:6][H:13])([H:11])[H:12].[O+:1]#[C-:2]
O        0.42581700       0.63731200      -0.08858800
C       -0.35387500       0.14410200      -0.72964000
C        1.67289700      -2.91385400       0.73970300
C        0.74971700      -3.42355500      -0.05732900
C       -1.08554000       3.74335200      -0.03557100
N       -1.79898700       2.97835500      -0.73896700
H        1.83135900      -1.84406200       0.81590900
H        2.30874300      -3.54463500       1.35046400
H        0.11381600      -2.79281700      -0.66804500
H        0.59119900      -4.49335700      -0.13344700
H       -1.32320700       4.78961800       0.18229300
H       -0.16225100       3.35449700       0.39518300
H       -2.62875900       3.46227100      -1.07943100
