11
smiles: [C:1]1([H:6])([H:7])[C@@:2]2([H:8])[C-:3]=[O+:4][C@@:5]12[H:11].[H:9][H:10]
C       -0.95265000      -0.46622000      -0.16231800
C       -0.16346100       0.41732800       0.81490200
C        1.10582300       0.84912500       0.11986000
O        0.43803000       1.23407800      -0.97701100
C       -0.85792700       0.98082000      -0.38305000
H       -1.88977100      -0.83193300       0.23982200
H       -0.42292300      -1.14108200      -0.82383500
H       -0.38569200       0.44572400       1.86940200
H        2.62014300      -2.18925900      -0.20197500
H        2.54965400      -1.45520200      -0.09857600
H       -1.63949500       1.71528800      -0.51001800
