11
Extracted from Q-Chem output
C      -1.020752     -0.520391     -0.158029
C      -0.025359      0.106261      0.808507
C       1.295584      0.375565      0.149792
O       0.728035      0.857959     -1.010192
C      -0.565021      0.853370     -0.392462
H      -2.025031     -0.611290      0.237604
H      -0.693657     -1.320888     -0.813342
H      -0.227946      0.222771      1.861869
H       1.708457     -1.277904     -0.241340
H       2.172935     -0.545609      0.006627
H      -1.154868      1.754733     -0.462988
