16
Extracted from Q-Chem output
C       1.834053      1.235561     -0.139613
O       1.291876      0.003265     -0.439544
C      -0.694210     -0.154377      0.159801
C      -1.405348     -0.394660     -1.138664
C      -0.645288     -1.285661      1.142879
C      -0.506159      1.126241      0.597085
N       0.078608      2.129202      0.793788
H       1.768390      2.030501     -0.871284
H       2.331304      1.372635      0.812018
H       2.411900      0.205510     -0.735252
H      -0.954702     -1.253320     -1.640954
H      -1.337867      0.469454     -1.798001
H      -2.462717     -0.623579     -0.974488
H      -1.650334     -1.576438      1.463228
H      -0.063420     -1.024055      2.025494
H      -0.185491     -2.155008      0.667966
