13
smiles: [C:1](/[N:2]=[C:3]1\[O:4][C@:5]1([O:6][H:13])[H:11])([H:7])([H:8])[H:9].[H:10][H:12]
C        2.12528400       0.01128300       0.12916100
N        0.88014200      -0.68688300       0.40662300
C       -0.10656800      -0.00803700       0.73198800
O       -0.48765700       1.27404100       0.91209800
C       -1.48786200       0.16870700       1.05478600
O       -2.49378400       0.11319800       0.15412400
H        2.44920200      -0.23631100      -0.88276400
H        2.05175500       1.09866500       0.22318300
H        2.89185200      -0.35226700       0.81498800
H       -0.57852600      -1.13624800      -1.99762600
H       -1.85914400       0.08037300       2.06847400
H       -1.06982400      -0.97758500      -2.53411400
H       -2.14291500      -0.05436500      -0.72510600
