13
Extracted from Q-Chem output
C       2.110447      0.110522      0.020506
N       0.743150     -0.281070     -0.232621
C      -0.175709      0.220345      0.515925
O      -0.254592      1.032743      1.463923
C      -1.583410     -0.259391      0.276333
O      -2.492920      0.521787     -0.201044
H       2.559747      0.507999     -0.892224
H       2.177180      0.868962      0.806801
H       2.699035     -0.758475      0.325204
H      -0.399369     -1.210846     -0.977766
H      -2.000100     -1.058548      0.884486
H      -1.196054     -1.424065     -1.050021
H      -2.088881      1.291704     -0.627120
