10
Extracted from Q-Chem output
O      -1.542643      1.335290      0.619924
C      -0.447865      0.528311      0.930601
C      -0.479424     -0.942837      0.729141
O       1.412461      0.666940     -1.929745
C       0.279471     -0.263552     -0.085456
C       1.130006     -0.302372     -1.279791
H      -1.887106      1.082622     -0.239887
H       0.073596      0.963228      1.777089
H      -0.923128     -1.887841      0.998190
H       1.495906     -1.310402     -1.554367
