14
Extracted from Q-Chem output
C       1.260167     -1.004820     -0.275551
C       0.629173      0.107761      0.387225
O       1.671835      1.318343     -0.108240
C      -0.709847      0.552162     -0.141513
O      -0.800102      1.438295     -0.960196
C      -1.898544     -0.221349      0.351990
H       0.748150     -1.422371     -1.136826
H       1.779132     -1.724818      0.345232
H       2.032919      0.353803     -0.578839
H       0.713052      0.185119      1.468568
H       1.144804      1.811270     -0.767494
H      -1.920569     -1.188580     -0.154128
H      -2.811650      0.325081      0.126611
H      -1.822745     -0.418738      1.422208
