12
Extracted from Q-Chem output
C      -1.446064     -0.399525     -0.364258
C      -0.259935     -0.296672      0.521332
O       0.307007     -1.307684      1.082689
C       0.465251      0.900033      0.895381
C       1.480761      0.343263     -0.090215
O       1.037465      1.713835     -0.070425
H      -1.499244      0.471145     -1.019022
H      -1.424578     -1.321363     -0.943131
H      -2.343946     -0.402684      0.258864
H       0.821066      1.012179      1.913852
H       1.111823     -0.122562     -1.013935
H       1.462495     -0.775864      0.851270
