11
Extracted from Q-Chem output
N       1.997958     -0.003555     -0.014557
C       0.780721     -0.129636     -0.483163
C      -0.240998      0.816213     -0.497242
N      -1.441086      0.718711     -0.023444
C      -1.355325     -1.321690      0.629279
N      -0.233366     -1.618745      0.554119
H       2.710054     -0.652175     -0.305231
H       2.220092      0.546415      0.803769
H       0.049723      1.655984     -1.136042
H      -2.068164      1.420014     -0.402110
H      -2.401178     -1.385969      0.833950
