17
Extracted from Q-Chem output
O       2.582874     -0.255527      0.573897
C       2.799761     -1.451880      1.001916
C       1.506358     -0.097685     -0.378996
C       0.281078      0.447439      0.322837
C      -0.849006      0.685307     -0.646187
C      -1.725757     -0.459652     -1.061247
C      -2.267797      0.619868     -0.171623
H       3.635103     -1.305413      1.724700
H       1.879608      0.596297     -1.133969
H       1.317374     -1.074327     -0.826329
H       0.541266      1.373962      0.842831
H      -0.028926     -0.274411      1.085063
H      -0.642099      1.426423     -1.411703
H      -2.071708     -0.501193     -2.085430
H      -1.527979     -1.427317     -0.616204
H      -2.980837      1.317881     -0.589613
H      -2.438307      0.378581      0.870230
