17
Extracted from Q-Chem output
O       2.143637     -0.927600      1.437548
C       3.039322     -0.896351      0.514152
C       1.381730     -0.594556     -0.105316
C       0.239961      0.230236      0.480219
C      -0.711933      0.615258     -0.625918
C      -1.733533     -0.371523     -1.113589
C      -2.163110      0.825961     -0.320287
H       3.668841      0.038209      0.619400
H       1.902468      0.032032     -0.846007
H       1.092216     -1.554248     -0.509825
H       0.638857      1.123216      0.965816
H      -0.284927     -0.350284      1.240494
H      -0.290737      1.271594     -1.381061
H      -1.962717     -0.397767     -2.170468
H      -1.771027     -1.337148     -0.623803
H      -2.682881      1.622849     -0.835005
H      -2.488492      0.665510      0.699967
