16
Extracted from Q-Chem output
C       1.678058     -0.856474     -0.198878
C       0.555163     -0.378463      0.689144
N       0.718006      1.041376      1.170057
C      -0.500326      1.318028      0.623065
O      -1.421323      2.173840      0.897005
C      -0.751163      0.073630      0.014383
C      -1.289011     -0.302276     -1.328943
H       1.843036     -0.152952     -1.016409
H       1.433086     -1.832205     -0.624293
H       2.608551     -0.952549      0.363331
H       0.402048     -1.044521      1.542870
H       0.909694      1.271804      2.136091
H      -1.835049      0.934615      0.749534
H      -0.500753     -0.362979     -2.086571
H      -2.015705      0.438867     -1.666910
H      -1.797658     -1.268035     -1.303948
