15
Extracted from Q-Chem output
C      -1.116095      1.127383     -1.055269
C      -0.823555      0.648049      0.356166
O      -1.815440      0.435317      1.164650
C       0.275760     -0.308161      0.513920
O       1.215880     -0.447466     -0.424825
C       2.449409     -0.949041     -0.053109
O       2.767487     -1.205400      1.055550
H      -1.634019      0.325344     -1.585337
H      -0.220245      1.403342     -1.613664
H      -1.784991      1.984110     -0.995789
H      -0.037329      1.361971      0.853662
H      -1.671707     -1.116127      0.888692
H      -1.136272     -1.669699      0.586991
H       0.534563     -0.637501      1.515571
H       3.056511     -1.061025     -0.957015
