15
Extracted from Q-Chem output
C       1.646967     -0.445662      0.133945
C       0.317444      0.107780      0.609667
C      -0.285488      1.203794     -0.263552
O      -1.345452      0.288532     -0.767524
C      -1.590685      1.686167      0.197560
C      -0.922175     -0.730256      0.237842
O      -0.770884     -1.955635     -0.329318
H       2.442067      0.275735      0.326983
H       1.654601     -0.638452     -0.943904
H       1.904867     -1.371005      0.651643
H       0.349511      0.373052      1.665150
H       0.321748      1.660963     -1.046591
H      -1.969567      2.336868     -0.604778
H      -1.702408     -0.791494      0.990605
H      -0.005487     -1.962197     -0.911208
