15
Extracted from Q-Chem output
O       1.959469     -0.888740     -0.422062
C       0.951553     -0.351875      0.372946
C       0.644523      1.162011      0.041586
C      -0.772433      1.056383     -0.405226
C      -1.393306      0.087930      0.591864
C      -0.422668     -0.950905      0.038027
O      -0.574229     -0.724514     -1.374292
H       1.577508     -0.983333     -1.304411
H       1.238572     -0.504734      1.414191
H       0.699013      1.785087      0.938218
H       1.329663      1.554551     -0.706975
H      -0.991545      0.407241     -1.491037
H      -1.225728      0.337315      1.640347
H      -2.439694     -0.139273      0.400537
H      -0.536521     -2.011776      0.275610
