15
Extracted from Q-Chem output
C       2.219170      0.517033      0.068265
O       0.817316      0.515521      0.017971
C       0.266172     -0.771838      0.125193
C      -1.233798     -0.696530      0.014724
C      -1.978984      0.466205      0.527304
N      -1.852606      0.235653     -0.914318
H       2.649676     -0.068245     -0.754403
H       2.586351      0.106631      1.017612
H       2.549336      1.550904     -0.021621
H       0.543787     -1.229731      1.086314
H       0.661714     -1.416920     -0.674278
H      -1.710613     -1.671971      0.046349
H      -1.403516      1.274645      0.962274
H      -2.976874      0.334305      0.928496
H      -1.137131      0.854339     -1.280858
