16
Extracted from Q-Chem output
C       1.714147      0.827764     -0.117150
C       1.116214     -0.302342      0.640117
C      -0.231588     -0.104820      1.271690
C      -1.059224     -1.239875     -0.274290
C      -0.512509      0.047839     -0.892868
C      -0.918357      0.891691      0.305747
N       0.951470     -0.171511     -0.835464
H       2.776637      0.778200     -0.322550
H       1.336213      1.833463      0.009071
H       1.754344     -1.104476      0.988736
H      -0.894326     -1.163501      1.040912
H      -0.561133     -2.165476     -0.558960
H      -2.146242     -1.318203     -0.266863
H      -0.831990      0.283113     -1.911793
H      -0.547296      1.911360      0.378934
H      -1.996733      0.918087      0.452618
