18
Extracted from Q-Chem output
C      -1.282322      0.712478     -0.309123
C      -0.237926     -0.006261      0.554565
C      -0.241307     -1.529423      0.361073
C       0.242591     -1.944353     -1.022402
C       1.121367      0.536399      0.710907
C       1.280147      1.979155      0.461298
H      -1.478035      1.726735      0.039412
H      -0.957944      0.777480     -1.349905
H      -2.229662      0.170462     -0.293922
H      -0.493562      0.160902      1.627811
H       0.414079     -1.963555      1.118138
H      -1.249751     -1.918676      0.534441
H      -0.408089     -1.565183     -1.813696
H       0.274091     -3.030926     -1.118422
H       1.252163     -1.564234     -1.199963
H       0.595687      2.469046     -0.241575
H       1.096777      2.411317      1.459338
H       2.315843      2.237597      0.237053
