15
Extracted from Q-Chem output
O       2.133452     -0.070296     -0.877499
C       1.647421      0.269063      0.386730
C       0.716015      1.426087      0.441799
C      -2.096675     -0.082109     -0.296819
O      -2.909214     -1.059656     -0.624164
C      -0.708452     -0.632053     -0.286559
C       0.195695      0.040597      0.713645
H       2.317129     -1.012038     -0.889634
H       2.367738      0.153888      1.192109
H       0.799550      2.128068      1.259946
H       0.441819      1.863720     -0.509668
H      -3.802079     -0.702395     -0.673162
H      -0.694930     -1.725453     -0.184261
H      -0.343159     -0.403901     -1.299422
H      -0.020007     -0.194886      1.750054
