17
Extracted from Q-Chem output
O       2.384834     -0.369944      2.297787
C       2.709985     -0.511014      1.149975
C       1.824093     -0.222619     -0.027733
C       0.394391      0.131716      0.339596
C      -0.358792      0.922919     -0.631032
C      -2.189380     -0.297111     -1.510442
C      -1.817632      0.776680     -0.460458
H       3.732404     -0.861646      0.897755
H       2.280353      0.596867     -0.594564
H       1.859184     -1.088874     -0.697108
H       0.418555      0.902831      1.140596
H      -0.138534     -0.713648      0.801668
H      -1.900410      0.017022     -2.513200
H      -3.267391     -0.454928     -1.490123
H      -1.705449     -1.251835     -1.296477
H      -2.346920      1.696448     -0.715535
H      -2.142599      0.426663      0.530867
