17
Extracted from Q-Chem output
O       2.396110     -0.579096      2.063548
C       2.580319     -0.628614      0.877819
C       1.595340     -0.182738     -0.163589
C       0.262643      0.293792      0.384404
C      -0.619360      0.960548     -0.642982
C      -1.791805     -0.359290     -1.244705
C      -2.052802      0.816148     -0.315984
H       3.539583     -1.020686      0.477883
H       2.072306      0.609002     -0.752998
H       1.466549     -1.017119     -0.865358
H       0.445914      1.097679      1.107653
H      -0.220276     -0.507654      0.963392
H      -0.719431     -0.068974     -1.671600
H      -2.349798     -0.334575     -2.175289
H      -1.743390     -1.328196     -0.759455
H      -2.732808      1.564222     -0.711105
H      -2.315301      0.510490      0.696923
