14
Extracted from Q-Chem output
N      -2.548411     -0.291603      0.085588
C      -1.137021     -0.201348      0.001102
C      -0.120765     -1.084700      0.003229
C       1.096057     -0.213512     -0.208820
N       2.294064     -0.534130      0.536539
C       0.629567      1.207048     -0.134842
N      -0.653722      1.160980     -0.086259
H      -2.896781     -0.952629     -0.593727
H      -2.834379     -0.622673      0.997312
H       1.223882     -0.324681     -1.309940
H       3.120262     -0.533567     -0.043511
H       2.172955     -1.466301      0.908621
H       1.183272      2.135412     -0.179202
H      -1.273113      1.961350     -0.112975
