16
Extracted from Q-Chem output
C      -1.728371      0.574145     -0.691130
C      -0.407531      0.362296      0.004724
C      -0.514528      0.076194      1.480047
C       0.750866     -0.061077     -0.788794
O       0.609419      1.291896     -0.370635
C       1.930700     -0.831045     -0.272118
H      -1.577069      0.796877     -1.747331
H      -2.263719      1.411431     -0.237646
H      -2.356701     -0.315431     -0.607529
H       0.568961     -0.198671     -1.855458
H      -1.070333      0.877333      1.972311
H       0.462607      0.009141      1.953294
H      -1.052143     -0.859369      1.649863
H       1.785603     -1.900637     -0.439491
H       2.834523     -0.526644     -0.803434
H       2.094351     -0.662793      0.790801
