14
smiles: [H:8][H:9].[O:1]=[C:2]1[C:3]([H:10])([H:11])[N:4]([H:12])[C@:5]1([C:6](=[O:7])[H:14])[H:13]
O       -0.23035400      -0.52114700       2.59460700
C       -0.24029700      -0.15228800       1.46733100
C       -1.04516400       0.82970400       0.63060900
N       -0.37061700       0.29952200      -0.57658900
C        0.57081400      -0.50872600       0.19895500
C        1.98622200       0.00565500       0.26987900
O        2.34451200       1.00880100      -0.28248200
H       -1.86133500      -1.36940200      -3.11292700
H       -1.56937300      -1.02557500      -2.52055200
H       -0.80780600       1.86872000       0.88204600
H       -2.12737000       0.68889500       0.65145300
H        0.10998800       1.01139300      -1.11343400
H        0.58518600      -1.57886800      -0.03508300
H        2.67900600      -0.60121300       0.88220900
