19
smiles: [C:1]([H:8])([H:9])([H:10])[H:19].[C:2](=[C:3]([C:4]([H:13])([H:14])[H:15])[C:5]([C:6](=[O:7])[H:18])([H:16])[H:17])([H:11])[H:12]
C        2.36171000       2.29458700       0.17422800
C        0.80594400      -1.41143600      -0.28441700
C       -0.46974500      -1.23674100       0.03478600
C       -1.51408600      -2.29060600      -0.19130100
C       -0.94583800       0.06168200       0.64119700
C       -1.56521600       0.97492500      -0.39081000
O       -1.36652600       2.15590600      -0.44800900
H        2.89207400       3.23926000       0.28454900
H        2.74813000       1.76215700      -0.69352300
H        2.50760000       1.68873600       1.06712300
H        1.54537900      -0.63977100      -0.10425100
H        1.15587700      -2.33462800      -0.73136100
H       -1.09785900      -3.16647900      -0.68765900
H       -1.94837000      -2.60831500       0.76104900
H       -2.33814300      -1.91203400      -0.80272300
H       -0.13857600       0.60577100       1.13108400
H       -1.71956000      -0.14071500       1.39219700
H       -2.23942200       0.48460200      -1.12445300
H        1.29912100       2.48902700       0.03677500
