19
Extracted from Q-Chem output
C       1.882268      1.199928     -0.427561
C       0.885282     -0.450483      0.577649
C      -0.453209     -0.676331      0.250959
C      -0.815480     -1.657650     -0.835290
C      -1.541868     -0.111171      1.131843
C      -1.239488      0.897390      0.105983
O      -0.458602      1.905260      0.303578
H       1.969688      2.291403     -0.508138
H       1.833452      0.792805     -1.435451
H       2.777780      0.851444      0.078160
H       1.140009     -0.075014      1.559375
H       1.629670     -1.091809      0.125791
H      -0.096643     -1.624534     -1.656427
H      -0.840775     -2.680055     -0.447923
H      -1.801361     -1.447279     -1.254142
H      -1.256391      0.145100      2.146380
H      -2.494222     -0.624424      1.055514
H      -1.813462      0.857302     -0.823446
H       0.672110      1.505061      0.080661
