11
Extracted from Q-Chem output
C       1.492158     -0.192184      0.097424
C       0.077059     -0.181224     -0.304922
N      -0.880453     -0.593852      0.448628
C      -0.926070      2.161654     -0.464955
N      -2.020143      1.799290     -0.644001
H       1.859635      0.828532     -0.026530
H       1.638319     -0.510612      1.128469
H       2.062901     -0.832140     -0.578818
H      -0.194442      0.117877     -1.306685
H      -1.822084     -0.322867      0.169933
H      -0.719770     -0.834895      1.414322
