11
Extracted from Q-Chem output
O      -0.728965      1.298512     -1.769847
C      -0.877044      0.693322     -0.751645
O      -2.054688      0.479831     -0.036167
C      -1.371437     -0.305212      0.985006
C      -0.122569     -0.058741      0.207761
C       2.092157     -0.130109     -0.462377
O       1.119719     -0.412287      0.324454
H      -1.758097     -1.325589      1.010340
H      -1.460756      0.170903      1.962778
H       3.046830     -0.529832     -0.163946
H       1.909036      0.470871     -1.343388
