15
smiles: [C:1](=[N:2][C:3]([H:10])([H:11])[H:12])([H:7])[H:9].[C:4](=[O:5])([C:6]([H:13])([H:14])[H:15])[H:8]
C       -2.01078600       1.25919800      -0.02581300
N       -1.10476400       0.39243200       0.05425600
C       -1.49296300      -0.96760300       0.34801600
C        1.70473300      -0.37602200      -0.85243300
O        1.50952800      -1.53905500      -1.07344000
C        2.27942000       0.16407800       0.42206600
H       -3.07566500       1.03076600       0.11768400
H        1.45535800       0.38693800      -1.62037900
H       -1.74567300       2.29167600      -0.24683800
H       -1.14720500      -1.61728600      -0.45826400
H       -2.57682300      -1.09707800       0.47334000
H       -0.98741300      -1.29274600       1.25927700
H        2.50168200      -0.64179900       1.11872500
H        1.57075100       0.86480000       0.87138300
H        3.18725700       0.73101300       0.19957600
