17
Extracted from Q-Chem output
C      -0.876398      1.902800      1.358534
C      -0.248707      0.526963      1.431842
C      -0.770350     -1.710523     -2.160914
C       0.194610     -1.616277     -1.261230
C       0.969479     -0.361757     -0.964470
C       0.778038      0.076708      0.437385
C       1.230183      0.336999      1.615650
H      -1.784352      1.891757      0.749410
H      -1.153324      2.265187      2.352183
H      -0.181717      2.622818      0.919535
H      -0.914737     -0.230481      1.852069
H      -1.296437     -2.642187     -2.328991
H      -1.069991     -0.858921     -2.763020
H       0.463651     -2.487548     -0.669382
H       0.641155      0.435551     -1.637426
H       2.035066     -0.528791     -1.146502
H       2.058339      0.404567      2.300003
