17
Extracted from Q-Chem output
C      -1.150687      1.173817      0.626300
C      -0.331767     -0.089758      0.776265
C      -1.009073     -0.879635     -1.636947
C      -0.060698     -1.025476     -0.618853
C       1.327449     -0.365542     -0.751194
C       1.223676      0.136880      0.687973
C       1.882966      0.552521      1.670404
H      -2.215804      0.950938      0.571596
H      -0.985559      1.817095      1.491618
H      -0.870471      1.727571     -0.272438
H      -0.659121     -0.690680      1.627921
H      -1.777238     -1.621433     -1.814387
H      -1.052593      0.029570     -2.225394
H       0.006850     -2.041500     -0.228697
H       1.311975      0.476836     -1.447673
H       2.165824     -1.016881     -1.002511
H       2.260045      0.891327      2.608662
