9
Extracted from Q-Chem output
N       1.702290     -0.101236      0.053329
C       0.424057     -0.318371      0.412823
N      -0.471057      0.397301     -0.473440
C      -1.807892      0.192170     -0.069553
N      -1.618364     -0.601046     -0.987115
O       0.055701     -0.973217      1.357881
H       1.906173      0.435896     -0.768067
H       2.440246     -0.520451      0.587044
H      -2.531746      0.560306      0.640675
