17
Extracted from Q-Chem output
C       2.180238     -0.058195     -0.074943
C       0.697653     -0.175160     -0.068551
C      -0.087896     -1.039342      0.746338
C      -1.494148     -0.807190      0.597187
C      -1.641547      0.219280     -0.494953
C      -0.246687      0.870108     -0.603099
O      -0.163441      2.053359      0.205445
H       2.510479      0.837902      0.464060
H       2.579847      0.019236     -1.089990
H       2.648745     -0.921611      0.401377
H       0.336794     -1.756532      1.440679
H      -2.258942     -1.485592      0.940008
H      -0.304552     -1.555989     -0.281634
H      -1.913631     -0.245571     -1.454815
H      -2.393372      0.985260     -0.293131
H      -0.020522      1.219698     -1.610601
H      -0.371770      1.803055      1.110565
