12
Extracted from Q-Chem output
C       2.418041      0.847671      0.671283
C       1.568936      0.312726     -0.304313
C       0.258111      0.083154      0.018506
C      -0.946956     -0.455767     -0.695732
C      -1.631884     -0.187787      0.648891
O      -0.362865      0.300382      1.172306
H       3.421405      0.957958      0.222878
H       1.826216      0.043839     -1.333329
H      -1.281100      0.145744     -1.538997
H      -0.864355     -1.499146     -0.994824
H      -1.967917     -1.057321      1.211038
H      -2.381057      0.601841      0.669339
