20
smiles: [C:1](=[C:2]([C:3]([C:4]([C:5]([C:6]([H:18])([H:19])[H:20])([H:16])[H:17])([H:14])[H:15])([H:12])[H:13])[H:10])([H:7])[H:8].[H:9][H:11]
C        3.00089100       0.37406400       0.62633900
C        1.99403900       0.62640800      -0.19554100
C        0.61965600       1.04534700       0.22552000
C       -0.45976700       0.05674800      -0.21592700
C       -1.86647300       0.49057800       0.17775600
C       -2.93869900      -0.49498400      -0.26702100
H        3.97087400       0.06239200       0.25824800
H        2.89053300       0.47211900       1.70175300
H        1.99303100      -2.42791300      -0.40103800
H        2.14898600       0.51216300      -1.26719200
H        1.87658300      -3.14463700      -0.56603800
H        0.39494500       2.02820400      -0.20564800
H        0.58984000       1.16622100       1.31279200
H       -0.24325700      -0.92611700       0.21634900
H       -0.41042000      -0.07234700      -1.30342100
H       -1.91327300       0.61831900       1.26451900
H       -2.07227600       1.47678600      -0.25208500
H       -2.93527500      -0.61696200      -1.35306000
H       -3.93564900      -0.16132700       0.02650100
H       -2.77549900      -1.48082600       0.17549700
