21
Extracted from Q-Chem output
C       1.802012     -0.824692      0.894673
C       1.096691     -0.611660     -0.440971
C       0.053856      0.489515     -0.421965
C       0.609479      1.876954     -0.190343
C      -1.111414      0.370886     -1.364817
C      -1.326415      0.212673      0.116022
C      -1.752391     -1.108539      0.703890
H       2.509806     -1.653505      0.834532
H       2.361168      0.060733      1.202900
H       1.083275     -1.054323      1.684271
H       1.836592     -0.370448     -1.212267
H       0.635937     -1.549530     -0.759757
H       1.368099      2.122064     -0.939197
H       1.069798      1.967242      0.796390
H      -0.177608      2.630474     -0.256522
H      -1.479147      1.265152     -1.852973
H      -1.174701     -0.526061     -1.970900
H      -1.788735      1.067360      0.601058
H      -1.509496     -1.169420      1.767460
H      -1.274713     -1.953316      0.205648
H      -2.832092     -1.241561      0.602868
