21
Extracted from Q-Chem output
C       1.809017     -0.725645      0.924139
C       1.155015     -0.562087     -0.444712
C       0.133931      0.561345     -0.553621
C       0.660134      1.926721     -0.138330
C      -0.927235      0.455351     -1.594453
C      -1.288169      0.354301     -0.175779
C      -1.838595     -1.362895      0.494770
H       2.428933     -1.623660      0.955014
H       2.450980      0.121298      1.172596
H       1.064715     -0.810799      1.721693
H       1.925758     -0.377710     -1.200148
H       0.670895     -1.492725     -0.751285
H       1.479704      2.216083     -0.801279
H       1.039226      1.943424      0.886519
H      -0.116558      2.688087     -0.228887
H      -1.317719      1.320299     -2.119634
H      -1.720306     -0.713578     -0.633600
H      -1.914631      0.958080      0.465552
H      -1.018498     -1.515381      1.184071
H      -1.920060     -2.232460     -0.169997
H      -2.784714     -1.160885      0.985167
