16
smiles: [C:1]([H:8])([H:9])([H:10])[H:12].[C:2]1(=[C:3]([H:11])[H:13])[C:4]([H:14])([H:15])[O:5]/[C:6]1=[N:7]\[H:16]
C       -1.63216600      -0.55327200       1.68262700
C        0.54585400      -0.02664000      -1.09165700
C        0.35212500      -1.11537800      -1.80595800
C        0.05312500       1.39769100      -1.03877200
O        0.92831100       1.62709500       0.10265900
C        1.39299100       0.32811100       0.07157400
N        2.22570300      -0.25908100       0.79225400
H       -1.20603900       0.44390700       1.78240200
H       -2.23518000      -0.78087500       2.56029500
H       -0.82924100      -1.28345100       1.59325300
H        0.89384900      -2.02217400      -1.56734400
H       -2.25755800      -0.59244700       0.79198100
H       -0.34017400      -1.13723100      -2.63847600
H       -0.99335800       1.54004400      -0.76688200
H        0.32685500       2.03809600      -1.87790600
H        2.60228900       0.35334500       1.51142200
