17
Extracted from Q-Chem output
C       1.955999     -0.277693      0.185278
C       0.563191     -0.869502      0.188396
C      -0.592563     -0.202437      0.925889
C      -1.454581     -0.282895     -0.251126
C      -0.322622     -0.856927     -1.094689
C      -1.108426      1.145337      0.281944
C      -0.231487      1.978122     -0.434641
H       1.943714      0.728149     -0.233333
H       2.361179     -0.235173      1.199353
H       2.627705     -0.896714     -0.414254
H      -0.834833     -0.293955      1.976763
H       0.605931     -1.897294      0.561727
H      -2.511250     -0.501171     -0.322918
H       0.025286     -0.212663     -1.898985
H      -0.542868     -1.853996     -1.474680
H      -1.924663      1.517985      0.902061
H      -0.482347      3.024728     -0.184347
