14
Extracted from Q-Chem output
C      -2.105973     -0.078312     -0.127719
C      -0.893023      0.630330      0.461127
C       0.391270     -0.088851      0.118352
O       1.481802      0.659307      0.713902
C       2.727237      0.305163      0.592756
O       2.803072     -0.810037     -0.136246
H      -2.193623     -1.099378      0.251173
H      -3.026291      0.448308      0.126659
H      -2.045600     -0.132580     -1.217319
H      -0.982359      0.696827      1.548258
H      -0.834293      1.655554      0.087468
H       0.402795     -1.105868      0.515355
H       0.547313     -0.144165     -0.960843
H       3.736159     -1.028250     -0.196495
