14
Extracted from Q-Chem output
C      -2.129015     -0.042115     -0.083527
C      -0.867542      0.638584      0.431993
C       0.371618     -0.150899      0.079016
O       1.513232      0.581662      0.602091
C       2.697723      0.083196      0.410071
O       2.828566     -1.028668     -0.228745
H      -2.243002     -1.042765      0.339852
H      -3.016408      0.532830      0.182782
H      -2.112047     -0.141167     -1.171352
H      -0.916510      0.755609      1.517409
H      -0.779945      1.642814      0.010100
H       0.359750     -1.147773      0.523837
H       0.489711     -0.263783     -1.000488
H       3.799598     -0.440049      0.197655
