14
Extracted from Q-Chem output
C      -1.379580      0.612979      0.673732
C      -0.536238     -0.569467      0.323751
C      -0.130794     -1.520692      1.146938
C       1.602566      0.843206     -0.883803
C       0.722540      0.108425     -1.547917
O      -0.253410     -0.679754     -1.029319
H      -1.554332      0.660923      1.747166
H      -2.341390      0.543561      0.160869
H      -0.902862      1.540295      0.351104
H      -0.395720     -1.489943      2.194795
H       0.462578     -2.349580      0.785283
H       2.328611      1.417615     -1.440124
H       1.635028      0.880002      0.197159
H       0.708147      0.051682     -2.629824
