16
smiles: [H:11][H:13].[O:1]([C:2]1([H:8])[C:3]([H:9])([H:10])[C:4]([H:12])=[C:5]([H:14])[C:6]1([H:15])[H:16])[H:7]
O       -1.15502000       0.42147700       1.29961400
C       -1.08349100       0.27653800      -0.11092800
C       -0.38786600      -1.03892400      -0.51760700
C        1.03444200      -0.62255200      -0.77422900
C        1.15502800       0.69532000      -0.83660500
C       -0.16143300       1.39063100      -0.62561100
H       -1.65811900      -0.31226600       1.65715000
H       -2.08917200       0.35041900      -0.53929300
H       -0.48119500      -1.79457400       0.26815100
H       -0.83850200      -1.46504500      -1.42070100
H        1.49150800      -1.13018900       2.76765000
H        1.84142600      -1.33099800      -0.91429700
H        1.06395100      -0.68493500       2.35133900
H        2.07728800       1.22708900      -1.03531200
H       -0.11323000       2.20062800       0.10475700
H       -0.53408800       1.81808900      -1.56200300
