16
Extracted from Q-Chem output
O      -2.024962      0.159594      0.689107
C      -1.139942      0.206504     -0.417952
C      -0.326033     -1.107898     -0.553413
C       0.858111     -0.802307      0.338947
C       1.152155      0.598245      0.203274
C      -0.128458      1.337395     -0.141887
H      -2.661184     -0.543225      0.544091
H      -1.700378      0.407656     -1.336871
H      -0.916405     -1.976542     -0.256041
H      -0.020958     -1.243977     -1.593708
H       2.350584     -0.764000      0.750309
H       0.826170     -1.268815      1.311330
H       2.286582      0.141218      1.157207
H       2.033111      0.931205     -0.324376
H      -0.507640      1.934581      0.688736
H      -0.009732      1.999323     -1.002476
