17
Extracted from Q-Chem output
C      -2.260467     -0.210211      0.267405
C      -0.928122      0.089120     -0.385069
C       0.079982      0.972573      0.394963
C       1.174008      0.014967     -0.053240
C       2.409778      0.355276     -0.775082
O       2.257123     -0.264406      0.850426
C       0.139073     -1.034689     -0.430319
H      -2.118255     -0.614306      1.273201
H      -2.869577      0.692686      0.352458
H      -2.828308     -0.942991     -0.310170
H      -1.082060      0.495640     -1.387244
H       0.180592      2.019218      0.108369
H      -0.083243      0.905744      1.472589
H       2.971189     -0.598094      0.080520
H       2.656379      1.412107     -0.621065
H      -0.001686     -1.753073      0.380985
H       0.293974     -1.567178     -1.367925
