10
smiles: [H:6][H:9].[O:1]([C:2]1=[C:4]([H:10])[C:3]1([H:7])[H:8])[H:5]
O        2.07497600      -0.32169600       0.10856700
C        0.82896800       0.03101200       0.40547100
C       -0.12005100       1.13214300       0.19220200
C       -0.31422300      -0.17881200       0.95718300
H        2.25679300      -1.18467300       0.49299500
H       -1.78465100      -1.06623200      -2.16579400
H       -0.59047600       1.25917100      -0.78396500
H       -0.00070900       2.06502100       0.74526400
H       -1.43390000      -1.05034200      -1.50918800
H       -1.00552500      -0.76270100       1.53423900
