10
Extracted from Q-Chem output
O       1.513439     -0.587490     -0.286845
C       0.204572     -0.229375     -0.240841
C      -0.391632      1.072508      0.121564
C      -0.843104     -0.218910      0.731150
H       1.648573     -1.323496      0.316682
H      -0.152308     -0.577410     -1.546550
H      -1.051186      1.620863     -0.550643
H       0.357570      1.703992      0.598219
H      -0.662207     -0.925687     -0.866270
H      -0.659884     -0.564946      1.737876
