14
Extracted from Q-Chem output
C      -1.882383      0.694886      0.142335
C      -0.932160     -0.344740      0.525991
O      -0.938787      0.912975      1.180065
C       0.269902     -0.675438     -0.295526
C       1.168052      0.410687     -0.797454
C       1.637368     -0.503639      0.295385
H      -2.917809      0.632756      0.464594
H      -1.301048     -1.159057      1.147865
H      -1.703362      1.258966     -0.768993
H       0.125949     -1.532174     -0.944787
H       0.923400      1.426130     -0.513576
H       1.598218      0.299738     -1.783847
H       2.392726     -1.243074      0.065363
H       1.693904     -0.085814      1.292361
