19
smiles: [C:1]([C:2]([O:3][C:4]1([H:13])[C:5]([H:15])=[C:6]1[H:16])([H:11])[H:12])([H:8])([H:9])[H:10].[C:7]([H:14])([H:17])([H:18])[H:19]
C        2.24494600       0.79847900       0.06938000
C        1.42848500      -0.43739300      -0.22912900
O        0.50288000      -0.63041100       0.81789200
C       -0.26189500      -1.79210900       0.66510100
C       -1.60795800      -1.81495200       1.25529700
C       -1.57065500      -1.74397000      -0.03546700
C       -1.43427900       2.05238000      -0.67827000
H        2.77665100       0.68561600       1.01512900
H        1.59891800       1.67430000       0.14347300
H        2.97662400       0.97394600      -0.72131000
H        2.08143600      -1.31774400      -0.31940300
H        0.89545700      -0.32954500      -1.18472200
H        0.36183200      -2.68870500       0.63298800
H       -1.05428500       1.31778500       0.03004700
H       -2.17986200      -1.83833900       2.16662600
H       -2.09855500      -1.66721900      -0.97008200
H       -0.85809000       2.00084400      -1.60079000
H       -2.48116000       1.84200000      -0.89212000
H       -1.34523400       3.04954200      -0.24971200
