13
Extracted from Q-Chem output
C       1.988951      0.055787      0.653531
O       0.774944     -0.621624      0.393920
C       0.102197     -0.142125     -0.690208
C      -1.268376     -0.759678     -0.729523
C      -1.513973      0.532610     -0.030373
H       1.796686      1.046058      1.080824
H       2.568907      0.169181     -0.264691
H       2.542590     -0.543455      1.374948
H      -0.319306      1.044966     -0.438386
H      -1.710138     -0.864535     -1.713679
H      -1.368567     -1.651553     -0.120434
H      -2.126082      1.278295     -0.526012
H      -1.542471      0.513369      1.051231
