12
Extracted from Q-Chem output
C       2.153902      0.182888      0.095258
C      -0.562699      0.015584      0.026275
C      -1.585620     -0.944321     -0.370648
N      -1.450102     -0.444340      1.007770
C      -0.068140      1.225865     -0.355615
N       0.765747      2.027400     -0.586349
H       1.712993     -0.023158     -0.855566
H       3.183515     -0.133983      0.249325
H       1.620116      0.540986      0.948636
H      -2.414015     -0.587768     -0.974225
H      -1.320331     -1.986061     -0.502279
H      -2.155641      0.230145      1.280767
