10
Extracted from Q-Chem output
C       2.058135     -0.000447      0.000258
C       0.599269      0.001160     -0.000559
C      -0.599257      0.001083     -0.000543
C      -2.058139     -0.000434      0.000256
H       2.446994     -0.441445     -0.919036
H       2.444935     -0.578135      0.841336
H       2.448592      1.015445      0.079477
H      -2.448530      1.015426      0.080196
H      -2.445005     -0.578705      0.840905
H      -2.447031     -0.440756     -0.919351
