10
Extracted from Q-Chem output
C      -1.390969     -0.170731      0.044388
C      -0.703895      0.703590     -1.344894
C       0.200632      0.347344     -0.552053
C       1.450403      0.072171      0.162730
H      -1.900762     -0.983954     -0.461120
H      -2.086909      0.573208      0.416957
H      -0.873045     -0.596504      0.911238
H       1.464005      0.541645      1.147823
H       2.269348      0.489025     -0.423656
H       1.623745     -0.999334      0.276333
