14
smiles: [C+:3]([N:4]([H:13])[H:14])=[C:5]=[N-:6].[C:1]([C:2]([H:10])([H:11])[H:12])([H:7])([H:8])[H:9]
C       -2.15462700       0.18362000       0.07654500
C       -1.05084400      -0.86021000       0.18152600
C        2.79885900       0.83412200      -0.23528300
N        2.54627800      -0.43464400      -0.10335000
C        1.62002400       1.64318700      -0.26674500
N        0.74930500       2.39874500      -0.30555800
H       -1.74571400       1.17665800      -0.12019500
H       -2.73299900       0.24312900       1.00063500
H       -2.84978000      -0.05234000      -0.73145000
H       -1.45977500      -1.85291900       0.37980100
H       -0.47335700      -0.92080400      -0.74305400
H       -0.35476900      -0.62347700       0.98851100
H        1.62019500      -0.84440400      -0.02841300
H        3.31804500      -1.08322200      -0.07052000
