14
Extracted from Q-Chem output
C      -1.912372      0.228251      0.176827
C      -0.700155     -0.633902     -0.055707
C       1.222889      0.216705      0.457521
N       2.157324     -0.622748     -0.036122
C       0.988669      1.443492     -0.217252
N       0.812551      2.467457     -0.719141
H      -1.757051      1.235485     -0.212915
H      -2.158364      0.303634      1.237420
H      -2.781736     -0.192788     -0.335344
H      -0.758069     -1.639071      0.368801
H      -0.379847     -0.688150     -1.090491
H       0.186816     -0.239397      0.885237
H       2.393461     -0.670914     -1.013656
H       2.612976     -1.273413      0.574750
