16
smiles: [C:1]([C:2]1=[C:6]([H:16])[O:5][C:4]([H:13])([H:14])[C:3]1([H:11])[H:12])([H:7])([H:8])[H:9].[H:10][H:15]
C        2.13149000      -0.38886200      -0.33093700
C        0.66916600      -0.39765300      -0.05164500
C       -0.38015100       0.07753500      -1.02983500
C       -1.67567500      -0.30915500      -0.30132000
O       -1.30849200      -0.62058100       1.05366900
C        0.04868800      -0.74030400       1.06822500
H        2.47637400       0.61658500      -0.59077700
H        2.70239800      -0.72716700       0.53462600
H        2.38029400      -1.03980400      -1.17400800
H       -1.18977400       2.70528200       1.50400900
H       -0.29764500       1.15668100      -1.19993800
H       -0.30262900      -0.40976600      -2.00469700
H       -2.12788200      -1.20397800      -0.73841400
H       -2.42224100       0.48395500      -0.27396100
H       -1.18750700       1.96298800       1.56315600
H        0.46374700      -1.09132000       2.00312500
