16
Extracted from Q-Chem output
C       1.994629      0.022183     -0.061717
C       0.503243      0.134112      0.033876
C      -0.419090      0.022677     -1.164296
C      -1.763994     -0.262666     -0.499104
O      -1.444137     -0.814492      0.805821
C      -0.240975     -0.423839      1.112846
H       2.404541      0.807628     -0.699142
H       2.461387      0.131332      0.919950
H       2.318301     -0.940205     -0.477229
H       0.014773      1.050554      0.921742
H      -0.470828      0.933400     -1.765167
H      -0.116336     -0.795589     -1.829019
H      -2.397967     -0.985722     -1.006558
H      -2.323901      0.654666     -0.301460
H      -0.665311      1.237328      1.950113
H       0.143126     -0.760276      2.065203
