14
Extracted from Q-Chem output
C      -1.591934     -0.280064      0.343177
C      -0.159395      0.178206      0.339224
C       0.359886      1.048088     -0.683663
C       0.744473     -0.474899     -0.808812
C       2.077255     -0.848262     -0.583665
O       0.404081      0.343893      1.589367
H      -1.682217     -1.252577      0.832807
H      -2.202780      0.440277      0.890087
H      -1.983495     -0.373444     -0.669181
H       1.173509      1.709082     -0.421257
H      -0.291722      1.391361     -1.475475
H       0.153363     -0.998507     -1.555067
H       2.457876     -0.216234      0.238974
H       0.320949     -0.475624      2.083893
