11
Extracted from Q-Chem output
N       2.167727      0.039301      0.527648
C       1.699279      0.260667     -0.618643
O       0.394189      0.214009     -0.916199
C      -0.491152     -0.109782      0.096746
C      -1.787633      0.024717     -0.133637
O      -2.778227     -0.271263      0.743917
H       3.176932      0.122913      0.522722
H       2.260104      0.513064     -1.519130
H      -0.049495     -0.463333      1.018956
H      -2.400305     -0.588536      1.568130
H      -2.167396      0.394015     -1.077647
