11
Extracted from Q-Chem output
N       2.040068      0.194975      0.530929
C       1.603442      0.029154     -0.636812
O       0.311176     -0.173968     -0.924467
C      -0.585788     -0.249071      0.145570
C      -1.872931      0.305894      0.005672
O      -2.670428     -0.339699      0.758526
H       3.044477      0.322053      0.527753
H       2.183678      0.018058     -1.560192
H      -0.139253     -0.033125      1.117006
H      -1.630067     -1.077587      0.804032
H      -2.235720      1.123081     -0.618057
