12
smiles: [C:1](=[C:4]([H:11])[H:12])([H:5])[H:6].[C:2](=[C:3]([H:9])[H:10])([H:7])[H:8]
C       -0.86056900      -2.52837600       0.06565600
C        0.05574800       1.72645900       0.57203500
C        0.76678900       2.47469700      -0.25368500
C        0.05091400      -1.67641800      -0.37093100
H       -1.85785400      -2.56049100      -0.35815600
H       -0.64754800      -3.23027800       0.86382000
H       -0.99357400       1.52096600       0.39302700
H        0.49277400       1.28823100       1.46211200
H        0.32975700       2.91269800      -1.14381900
H        1.81611800       2.67998100      -0.07471000
H       -0.16205800      -0.97427200      -1.16897200
H        1.04813500      -1.64396200       0.05312000
