12
smiles: [O:1]=[C:2]=[C:3]([C:4]([H:8])([H:9])[H:10])[H:7].[O:5]=[C:6]([H:11])[H:12]
O        0.47356200       2.38491400       1.11412400
C       -0.12628200       1.64543700       0.45279300
C       -0.80318300       0.80975900      -0.29124300
C       -1.48842900      -0.41521300       0.25581800
O        1.50287800      -1.92062300      -0.49210900
C        1.93503900      -0.81522700      -0.34668400
H       -0.84384200       1.04915600      -1.34616900
H       -2.56215100      -0.38286600       0.06079100
H       -1.34941900      -0.49753000       1.33365100
H       -1.09006700      -1.32355700      -0.20027800
H        2.20328600      -0.17294500      -1.20740900
H        2.08897500      -0.37407100       0.65686300
