12
Extracted from Q-Chem output
N       2.002320     -0.021326      0.046237
C       0.644123     -0.103877     -0.219299
C      -0.173533      1.058900     -0.101682
N      -1.456716      0.802372     -0.130587
C      -1.852981     -0.775335      0.536331
O      -2.792302     -1.369445      0.225948
N      -0.032022     -1.205539     -0.331933
H       2.566072     -0.752621     -0.352108
H       2.411476      0.890294     -0.073264
H       0.231813      1.976198      0.317492
H      -2.049448      1.548773      0.222631
H       0.501196     -2.048394     -0.139766
