16
Extracted from Q-Chem output
C       2.539305     -0.194415     -0.466091
N       1.122811     -0.334261     -0.227379
C       0.454469     -0.823328      0.832476
C      -1.895237      0.189754      0.711899
C      -2.315492      1.369432      0.281460
C       0.059410     -0.075282     -1.026471
C      -0.842769     -0.641519      0.060708
H       3.059731     -0.150510      0.488868
H       2.718232      0.719071     -1.030089
H       2.904086     -1.051383     -1.033288
H       0.724290     -0.627819      1.863670
H      -2.334110     -0.240954      1.609241
H      -3.081278      1.919090      0.815838
H      -1.902311      1.815437     -0.615358
H       0.078000     -0.273124     -2.094494
H      -1.242724     -1.608755     -0.266820
