10
smiles: [C:3](=[C:4]([H:8])[H:9])([N:5]([H:6])[H:10])[H:7].[O+:1]#[C-:2]
O        1.58665200      -1.62413900       1.86131600
C        2.06815000      -1.16163500       0.95781400
C       -0.31947600       0.37942000      -0.76411200
C       -1.26558900      -0.51008600      -0.47555700
N        0.07317000       1.45105400       0.02075200
H        1.02212000       1.75853000      -0.09961300
H        0.18960200       0.33655300      -1.72219100
H       -1.53567800      -1.26884000      -1.19502100
H       -1.79959500      -0.49584500       0.46796200
H       -0.20482700       1.41196600       0.98745700
