15
Extracted from Q-Chem output
C       1.786399     -0.133233     -0.041658
C       0.508786     -0.077538     -0.879569
C      -0.743974     -0.237385     -0.061971
N      -1.361212      0.952254      0.367322
O      -0.446715      1.878704      0.919251
C      -1.309220     -1.417899      0.182678
H       1.803837      0.666585      0.697953
H       1.853634     -1.085531      0.487189
H       2.667767     -0.035992     -0.678596
H       0.461993      0.867417     -1.425936
H       0.529484     -0.875108     -1.624751
H      -0.577618      2.670322      0.392734
H      -0.924737     -2.318628     -0.275563
H      -2.183446     -1.514367      0.816144
H      -2.049052      0.767280      1.086806
