10
Extracted from Q-Chem output
N       2.359766     -0.151738      0.210850
C       1.105285     -0.080342      0.211226
C       0.198662     -1.231932      0.472632
C      -1.082711     -0.679250      0.023030
C      -0.934467      0.825891     -0.125145
O      -1.754277      1.666958     -0.273154
O       0.408457      1.096743     -0.056335
H       2.783066      0.741961     -0.042601
H      -1.171915     -1.114377     -0.990779
H      -1.976645     -1.005503      0.553025
