10
Extracted from Q-Chem output
N       2.304530     -0.190480      0.119854
C       1.058224     -0.104854      0.111503
C       0.098448     -1.231205      0.375998
C      -1.125610     -0.584734      0.172207
C      -0.952195      0.900065     -0.066048
O      -1.771309      1.748430     -0.189921
O       0.388169      1.112431     -0.100323
H       2.742825      0.715528     -0.042618
H      -0.698929     -1.288838     -0.744330
H      -2.108932     -1.007930      0.346427
