19
Extracted from Q-Chem output
C       2.449450      0.413694     -0.444318
C       1.284378     -0.532861     -0.702340
C       0.156380     -0.395923      0.317624
C      -0.549021      0.977532      0.305394
C      -2.034939      0.694551      0.593086
C      -2.172397     -0.762452      0.239987
C      -0.992471     -1.348407      0.097402
H       3.246901      0.268938     -1.175244
H       2.874563      0.249967      0.549476
H       2.135950      1.458656     -0.500408
H       0.875195     -0.357520     -1.703616
H       1.646966     -1.565960     -0.695910
H       0.581974     -0.587141      1.313607
H      -0.453639      1.410717     -0.695079
H      -0.110328      1.687065      1.007700
H      -2.283619      0.854786      1.648264
H      -3.129816     -1.263289      0.159566
H      -2.702867      1.337280      0.015022
H      -0.841335     -2.400248     -0.118911
