19
Extracted from Q-Chem output
C       2.421675      0.380762     -0.682876
C       1.176030     -0.494680     -0.733532
C       0.270246     -0.290819      0.464405
C      -0.453185      1.074570      0.617510
C      -1.817578      0.370529      0.686118
C      -1.935877     -0.777429     -0.733750
C      -1.105553     -0.981942      0.455682
H       3.054404      0.223458     -1.557931
H       3.023336      0.167231      0.204673
H       2.159635      1.441724     -0.654423
H       0.602392     -0.292564     -1.641521
H       1.465219     -1.550019     -0.780806
H       0.808414     -0.533727      1.385025
H      -0.352196      1.751337     -0.231826
H      -0.208683      1.612958      1.531464
H      -2.535713      0.464184      1.490921
H      -2.903599     -1.256745     -0.515194
H      -2.344594      0.569388     -0.347783
H      -1.317268     -1.801472      1.135722
