16
Extracted from Q-Chem output
C       1.565940      0.289906     -0.387647
C       0.181134     -0.245883     -0.084407
C       0.074677     -1.085006      1.084063
C      -0.912644      0.787062      0.178024
N      -1.396113      0.669589     -1.157580
C      -0.632343     -0.449548     -1.394819
O      -0.639349     -1.266494     -2.268004
H       2.188634     -0.520528     -0.771339
H       2.019860      0.684684      0.522034
H       1.530219      1.084740     -1.133513
H      -0.827119     -1.664203      1.237207
H       0.131034      0.392986      1.943294
H       0.964870     -1.451220      1.580287
H      -1.665699      0.668234      0.955740
H       0.030678      1.196284      1.595268
H      -2.256470      0.959149     -1.592519
