13
Extracted from Q-Chem output
C      -1.866129      0.280941     -0.149684
N      -1.168881     -0.864122     -0.708687
C       0.074154     -1.170140     -0.028892
C       1.117786     -0.155672     -0.020224
C       1.958712      0.746937     -0.070470
C       2.773989      1.800936     -0.192356
H      -2.768348      0.471960     -0.730357
H      -1.263103      1.199598     -0.129822
H      -2.172059      0.053419      0.874601
H      -0.143349     -1.423559      1.016018
H       0.506288     -2.082970     -0.453107
H      -0.986970     -0.711441     -1.691518
H       3.752089      1.644290      0.277712
