13
Extracted from Q-Chem output
C      -1.905563     -0.611441     -0.110499
N      -0.509462     -0.436984      0.320381
C      -0.132831      0.975186      0.257026
C       0.595880      0.397972     -0.909482
C       1.941152      0.035533     -0.608319
C       3.107884     -0.224810     -0.469436
H      -2.111645     -1.673041     -0.244155
H      -2.130341     -0.074641     -1.038963
H      -2.542450     -0.222778      0.685719
H      -0.950526      1.659226      0.038637
H       0.462489      1.283346      1.111441
H      -0.035713     -0.743810     -0.767250
H       4.140091     -0.455780     -0.351633
