14
Extracted from Q-Chem output
C      -1.238265     -0.960840     -0.653553
C      -1.287386      0.553658     -0.615608
C      -0.012001     -0.181299     -0.375879
C       0.754614     -0.138067      0.934492
C       1.966334      0.578684     -0.555214
O       1.026371     -0.135692     -1.313896
H      -1.305759     -1.438400     -1.622091
H      -1.686846     -1.511472      0.164213
H      -1.777773      1.031852      0.223136
H      -1.381516      1.067992     -1.562761
H       0.921428     -1.118260      1.387763
H       0.444216      0.600710      1.667068
H       1.548807      1.585364     -0.352542
H       1.979718      0.007376      0.609122
