15
Extracted from Q-Chem output
C       1.755716     -0.769586     -0.422523
C       0.708012      0.319727     -0.234990
C      -1.583822      2.116211      0.482284
N      -1.576945      0.838280      0.715378
C      -0.548632     -0.202462      0.451452
C      -1.173763     -1.284254     -0.323375
N      -1.669739     -2.127454     -0.921765
H       1.390892     -1.571870     -1.065825
H       2.650380     -0.352555     -0.884409
H       2.050335     -1.208952      0.533028
H       1.112653      1.125822      0.380051
H       0.436075      0.754466     -1.199277
H      -0.631346      2.380088     -0.008231
H      -2.400982      0.448642      1.157536
H      -0.269799     -0.632030      1.419466
