13
Extracted from Q-Chem output
C       1.987734      0.492659      0.111202
C       0.573890      0.046622     -0.032012
C       0.101062     -1.259462     -0.164758
N      -1.244920     -1.251894     -0.242231
C      -1.542983      0.121301     -0.086877
O      -2.758377      0.581491     -0.447326
N      -0.452525      0.902636      0.010059
H       2.185550      0.806690      1.137790
H       2.185152      1.343209     -0.540794
H       2.677059     -0.313386     -0.139144
H       0.649501     -2.188205     -0.127738
H      -1.656367     -0.677860      0.898934
H      -2.732065      1.538154     -0.352677
