14
Extracted from Q-Chem output
N       1.401959     -0.158238      1.754973
C       0.945247      0.538703      0.785311
O       0.789574      1.689904      0.452528
C       0.508929     -0.728857     -0.093977
C      -0.982531     -0.661492     -0.278275
C      -1.572547      0.194585     -1.295854
O      -1.458300     -1.210908     -1.490867
H       1.735082      1.488600      2.490456
H       1.985472      0.794428      2.774808
H       0.808776     -1.693510      0.311390
H       1.044818     -0.565007     -1.029976
H      -1.570496     -0.915998      0.600615
H      -0.921841      0.807279     -1.911673
H      -2.584774      0.562761     -1.164244
