13
smiles: [C:1]1([H:7])([H:8])[C:2]([C:5]#[N:6])([H:10])[C:3]1([H:11])[H:12].[O:4]([H:9])[H:13]
C       -0.69561600       0.79348900       0.61969200
C       -0.65716900      -0.45163600      -0.23084100
C       -0.10654000      -0.45762100       1.17337700
O        2.23540000       0.70189900      -1.03313400
C       -1.88551700      -1.15019600      -0.49968900
N       -2.86835500      -1.70640200      -0.70720400
H       -0.03091400       1.59610900       0.33173600
H       -1.66201600       1.10917200       0.98739500
H        3.04055600       0.18317800      -1.04973200
H        0.05066100      -0.47977000      -1.04852800
H        0.96806200      -0.52709800       1.27136900
H       -0.67017400      -1.00004600       1.91956000
H        2.35316300       1.37626000      -1.70314900
