13
Extracted from Q-Chem output
C      -0.337423      1.086502     -0.208381
C      -0.802091     -0.358657     -0.465712
C       0.557087     -0.842618     -0.176715
O       2.092992      0.480575      0.211567
C      -1.836902     -0.862750      0.427508
N      -2.634566     -1.262472      1.149161
H      -0.471111      1.713028     -1.083560
H      -0.777694      1.489255      0.698001
H       1.066282      1.028019      0.069233
H      -1.097852     -0.528031     -1.499571
H       1.189380     -1.134074     -1.000118
H       0.752852     -1.317177      0.773969
H       2.370588      0.495737      1.135473
