14
Extracted from Q-Chem output
C      -0.942844     -0.783438     -1.198928
C       0.116996      1.153010      1.100045
N      -0.197056      2.101162      1.853389
O       0.485222     -0.055631      1.568651
C       0.972462     -0.842957      0.491612
C       0.362142     -0.171054     -0.736752
O       0.145917      1.160725     -0.255834
H      -1.640195     -0.879168     -0.364134
H      -1.403261     -0.162361     -1.967085
H      -0.765657     -1.776115     -1.617689
H      -0.480350      2.905676      1.306667
H       2.064884     -0.810653      0.484144
H       0.637990     -1.870166      0.631911
H       1.074562     -0.102054     -1.559338
