14
Extracted from Q-Chem output
C      -0.999136     -0.266586     -0.686324
C      -0.201935      0.777931      0.975526
N      -0.830149      1.744924      1.316050
O       0.565526     -0.107992      1.498356
C       1.184795     -0.908814      0.481957
C       0.868960     -0.119892     -0.794512
O       1.173999      1.106187     -0.764085
H      -1.662995     -0.646461      0.096605
H      -1.430739      0.602151     -1.177624
H      -0.946524     -1.079106     -1.418395
H      -1.407456      2.299876      0.710118
H       2.256501     -0.915455      0.679162
H       0.766690     -1.914637      0.526133
H       1.093277     -0.705148     -1.706306
