14
Extracted from Q-Chem output
C      -1.536382     -1.090289      0.282708
C      -0.776932      0.449769     -0.480124
C       0.365703      1.313002      0.016812
O       1.188395      0.660793      0.972502
C       1.552355     -0.600266      0.640332
N       0.935185     -1.399198     -0.106465
C      -0.367299     -1.034039     -0.609162
H      -1.136459     -1.020802      1.309555
H      -1.670789      0.462372      0.243233
H      -1.235591      0.821092     -1.392245
H       0.012067      2.223136      0.497084
H       0.983823      1.590345     -0.844864
H       2.481298     -0.884233      1.127078
H      -0.509987     -1.437314     -1.606912
