13
Extracted from Q-Chem output
C       1.970446     -0.288203      0.023904
C       0.542688      0.091612     -0.171950
N       0.015939      0.062744     -1.553440
C      -0.787502     -0.703949     -0.943249
C      -1.498908      0.035391      0.551300
O      -2.412698      1.046528      0.431091
N      -0.247792      0.553180      0.822564
H       2.547312     -0.062834     -0.872934
H       2.082681     -1.353540      0.241707
H       2.387732      0.264009      0.868522
H      -1.279081     -1.592652     -1.339035
H      -3.283272      0.647218      0.483252
H      -0.038352      1.302207      1.461425
