18
smiles: [C:1]([C:2]([C:3]([H:12])([H:13])[H:14])([H:11])[H:18])([H:8])([H:9])[H:10].[N:4]([C:5]([H:15])([H:16])[H:17])=[C:6]=[O:7]
C       -0.81975800      -0.69178500      -0.36401200
C       -1.53718600       0.53801100      -0.90608200
C       -2.57743300       1.08753800       0.06170800
N        2.70200100       0.00199700       0.71325400
C        2.82857700      -1.42458000       0.63726100
C        2.23216600       0.91701400       0.10824500
O        1.81402600       1.88319200      -0.39713500
H       -0.29932400      -0.46345800       0.56969700
H       -1.52734400      -1.49860600      -0.15672800
H       -0.08063400      -1.07042200      -1.07258200
H       -2.01912600       0.28900100      -1.85636600
H       -3.08101400       1.96548200      -0.34726400
H       -3.34142300       0.33807800       0.28368300
H       -2.11789900       1.37947900       1.00949000
H        3.31771600      -1.78616400       1.53963300
H        1.84946800      -1.90012100       0.56034600
H        3.43325300      -1.71430200      -0.22361000
H       -0.80329800       1.31699900      -1.13353800
