15
Extracted from Q-Chem output
C       1.510768      0.884146     -0.385817
C       0.295049      0.232936     -0.124241
O       1.050471     -0.649948      1.440173
C      -1.034335      0.733240      0.447245
C      -1.692741     -0.463130     -0.243667
O      -1.376374     -0.340733     -1.626514
C      -0.412604     -0.936937     -0.768591
H       2.113605      0.504522     -1.203805
H       1.556800      1.952198     -0.211590
H       1.772506      0.140820      0.729571
H       1.242057     -1.593793      1.394404
H      -1.044583      0.697345      1.533031
H      -1.361045      1.707667      0.083904
H      -2.585205     -1.011947      0.022252
H      -0.040485     -1.920814     -1.017783
