16
smiles: [C:1]([C:2][C:3]([H:10])([H:11])[H:12])([H:7])([H:8])[H:9].[C:4]1([H:13])([H:14])[C:5]([H:15])([H:16])[O:6]1
C       -1.56850900      -0.92225600       0.29391200
C       -0.87697700       0.34295100       0.57603500
C       -1.12660200       1.37400800      -0.44059600
C        1.71122300      -0.98831900       0.44710700
C        1.98345000       0.37508900       0.00697600
O        0.85980400      -0.33659700      -0.47687000
H       -1.85344000      -1.12729700      -0.74823400
H       -2.49677100      -0.79187700       0.87760600
H       -1.08059200      -1.78438000       0.75087600
H       -1.45492700       1.04272100      -1.43648000
H       -0.31937500       2.10470200      -0.50946700
H       -1.95968400       1.93098600       0.02295000
H        2.29494300      -1.80955100       0.04156500
H        1.28444500      -1.15724700       1.43159400
H        2.76742100       0.55668400      -0.72246400
H        1.75672200       1.20585300       0.66889600
