16
Extracted from Q-Chem output
C      -1.383767     -1.150008     -0.111294
C      -0.709328     -0.013621      0.563778
C      -1.237406      1.316239      0.171207
C       1.384153     -0.160398      0.765170
C       2.151657     -0.078082     -0.464466
O       0.779900      0.052798     -0.788545
H      -1.578426     -0.989737     -1.181026
H      -2.351371     -1.246145      0.398007
H      -0.858738     -2.097187      0.019819
H      -1.432374      1.427877     -0.904697
H      -0.610027      2.141882      0.509836
H      -2.195788      1.404053      0.699246
H       1.266340     -1.125524      1.233307
H       1.380708      0.693040      1.425505
H       2.611459     -0.984079     -0.859688
H       2.737660      0.819809     -0.661541
