17
Extracted from Q-Chem output
C      -2.116183      0.310095     -1.070451
C      -1.372301     -0.670361     -0.581412
C       0.119409     -0.709311     -0.516968
C       0.971957      0.572595     -0.750877
C       1.600025      0.382237      0.625537
C       0.537796      0.389228      1.675729
C       0.753678     -0.852625      0.873264
H      -3.197505      0.245909     -1.076208
H      -0.363481      0.978316      1.535994
H      -1.677971      1.208535     -1.489953
H      -1.867036     -1.551162     -0.175436
H       0.477867     -1.512110     -1.166813
H       0.430836      1.510777     -0.887886
H       1.674695      0.450271     -1.573685
H       2.642629      0.539550      0.865660
H       0.892021      0.343187      2.697868
H       1.039511     -1.789060      1.333483
