14
smiles: [H:9][H:11].[O:1]([C@:2]1([H:8])[C@@:3]2([H:10])[C@:4]1([H:12])[C:5]([H:13])([H:14])[O:6]2)[H:7]
O       -1.75746900       1.30293200       0.18601600
C       -1.02332700       0.17933700      -0.16157600
C       -0.00211800      -0.39609000       0.74606200
C        0.42664500       0.23168700      -0.56833600
C        1.12949100       1.24636500       0.30895800
O        0.58093800       0.65408100       1.51267900
H       -1.43926600       1.59465200       1.04729000
H       -1.61007500      -0.54140500      -0.71951600
H       -0.48501300      -3.24342600      -1.35270400
H        0.03660800      -1.40046900       1.14754000
H        0.23145600      -3.09874600      -1.21006800
H        0.81670300      -0.20903900      -1.47379800
H        0.84340800       2.29485400       0.19224500
H        2.21623500       1.14911100       0.30982200
