14
Extracted from Q-Chem output
O      -2.089896      0.538422     -0.250734
C      -1.421842     -0.507139      0.194590
C      -0.061859     -0.358952      0.655676
C       0.880218     -0.175325     -0.566002
C       1.517561      0.952449      0.256690
O       0.319613      0.967059      1.079994
H      -1.502025      1.309826     -0.199287
H      -2.043927     -1.364513      0.404566
H      -0.559817     -1.759187     -1.102035
H       0.246794     -1.136193      1.359499
H       0.287587     -1.560010     -1.124216
H       0.320935      0.273088     -1.394384
H       1.689927      1.922135     -0.211872
H       2.380943      0.662185      0.862127
