15
Extracted from Q-Chem output
C      -2.735592     -0.586721      0.713063
C      -0.815245      0.075686     -0.716272
C       0.169134      0.893440     -0.963069
N       1.498727      0.757108     -0.509186
C       1.888133     -0.127277      0.416393
N       3.199496     -0.078592      0.646220
C      -1.830738     -0.700177     -0.479589
H      -3.771600     -0.432684      0.400817
H      -2.705930     -1.507145      1.301003
H      -2.437234      0.241243      1.354526
H      -0.000466      1.779395     -1.565707
H       2.158652      1.389225     -0.954770
H       3.592056     -0.693524      1.332529
H       3.849809      0.543602      0.174977
H      -2.036624     -1.507231     -1.180215
