15
Extracted from Q-Chem output
C      -2.605759     -0.099056      0.152723
C      -0.866923     -0.276151      0.078002
C      -0.119345      0.765324     -0.252890
N       1.285962      0.726435     -0.106148
C       2.024048     -0.358178     -0.363378
N       3.307579     -0.194262     -0.034800
C      -1.435704     -1.355980      0.583342
H      -3.336442     -0.879637     -0.051688
H      -2.872278      0.475748      1.030273
H      -2.589509      0.514647     -0.756613
H      -0.553094      1.652625     -0.692995
H       1.696638      1.562550      0.304241
H       3.949024     -0.943311     -0.208408
H       3.697223      0.644455      0.384282
H      -1.563555     -2.206578     -0.085957
