15
Extracted from Q-Chem output
C      -2.201296      0.058337     -0.129729
C      -0.789737      0.613022      0.010107
C       0.276268     -0.475019     -0.029907
C       1.680238      0.072933      0.109800
O       2.590138     -1.011893      0.067024
H      -2.321452     -0.473614     -1.076481
H      -2.427445     -0.645958      0.674407
H      -2.948417      0.853271     -0.096135
H      -0.601698      1.338076     -0.789039
H      -0.709013      1.169191      0.950190
H       0.211601     -1.030638     -0.970580
H       0.103332     -1.199031      0.772445
H       1.884271      0.783769     -0.702872
H       1.771584      0.619964      1.058367
H       3.481626     -0.672411      0.152403
