16
Extracted from Q-Chem output
C       1.925548     -0.031183     -0.321415
C       0.682577      0.554083      0.336295
C      -0.615446      0.020104     -0.244690
C      -0.823721     -1.467475     -0.076090
C      -2.281634      1.751723      0.012413
O      -1.717655      0.686096      0.455410
H       2.018972     -1.102169     -0.134951
H       1.912173      0.121749     -1.403406
H       2.824315      0.447300      0.068496
H       0.688284      0.353531      1.411624
H       0.681933      1.641679      0.219050
H      -0.704494      0.310050     -1.298006
H      -0.084868     -2.022663     -0.654375
H      -1.814903     -1.756906     -0.425243
H      -0.729115     -1.752224      0.973317
H      -1.784495      2.004751     -0.968780
