8
Extracted from Q-Chem output
N      -1.303699     -0.171480      0.292341
C       0.411105      1.062539      0.053822
C       1.310331      0.245626     -0.110025
N       0.352098     -1.630814     -0.119617
N      -0.722068     -1.247567      0.029721
H      -2.245820     -0.120383     -0.083034
H      -0.096560      1.988936      0.194699
H       2.303154     -0.114060     -0.257476
