7
Extracted from Q-Chem output
O      -1.029226      0.727801     -0.466000
C      -0.292650     -0.365986     -0.031985
C       2.246512      0.153844      0.085971
N       1.109821     -0.090904      0.025014
H      -0.964693      1.433080      0.182181
H      -0.453776     -1.165521     -0.753495
H      -0.596127     -0.710693      0.961040
