7
Extracted from Q-Chem output
O      -0.991787      0.588770     -0.573120
C      -0.241046     -0.376734     -0.014480
C       1.512528     -0.110086     -0.472977
N       1.466862      0.375369      0.601622
H      -1.036054      1.351312      0.010248
H      -0.291573     -1.291023     -0.592696
H      -0.399071     -0.555986      1.044130
