15
Extracted from Q-Chem output
C       1.637441      0.339092     -1.072646
C       1.371690     -0.146628      0.188540
O       1.997738     -0.643461      1.105274
C      -0.316017     -0.377774      0.422532
O      -0.471864     -1.379245      1.341164
C      -1.505665     -0.106094     -0.493049
C      -1.128959      0.886561      0.548840
H       0.455592     -0.706540     -0.665919
H       0.864682      0.866402     -1.615503
H       2.656822      0.419158     -1.426945
H       0.386672     -1.417297      1.803413
H      -2.346784     -0.759651     -0.304719
H      -1.329670      0.130096     -1.535280
H      -0.673711      1.818046      0.240431
H      -1.734554      0.926092      1.444703
