11
Extracted from Q-Chem output
C       1.591476     -0.188203     -0.043458
C       0.371009      1.282403      0.962066
N      -0.586637      1.437379      0.246851
C      -1.496495      0.558711     -0.238294
C      -1.147659     -0.735337      0.068585
O      -0.112165     -0.963554      0.777014
H       1.887586     -1.170728      0.289934
H       2.315097      0.577868      0.188010
H       1.181474     -0.143431     -1.045218
H      -2.310909      0.877619     -0.868048
H      -1.704633     -1.575957     -0.348710
