17
Extracted from Q-Chem output
C       2.604254     -0.343812      0.449031
C       1.416243      0.582946      0.241677
C       0.147257      0.036320      0.880121
O      -0.989627      0.916270      0.775435
C      -1.708107     -0.217185      0.249636
C      -2.492200      0.065389     -1.012617
C      -0.520409     -1.119402      0.207480
H       2.401197     -1.334611      0.039971
H       2.834505     -0.460782      1.510452
H       3.493335      0.053130     -0.042062
H       1.232173      0.744642     -0.823335
H       1.597835      1.567084      0.680550
H       0.344743     -0.240810      1.929349
H      -2.369132     -0.650800      1.022728
H      -2.982289     -0.846431     -1.354211
H      -3.245783      0.828017     -0.815377
H      -1.830920      0.426261     -1.800154
