17
Extracted from Q-Chem output
C       2.285379     -0.223199      0.033386
C       1.115591      0.717816      0.292454
C      -0.023211      0.017778      0.992699
O      -1.184049      0.844915      1.262275
C      -1.968369     -0.150859      0.622814
C      -1.809166     -0.076111     -0.870972
C      -0.845082     -1.111646      0.353173
H       1.986350     -1.056404     -0.605344
H       2.668679     -0.644518      0.965229
H       3.106647      0.301219     -0.456458
H       0.756658      1.146280     -0.647576
H       1.428304      1.560784      0.914880
H       0.323588     -0.412681      1.942091
H      -2.943503     -0.357080      1.049673
H      -2.566620     -0.614911     -1.428388
H      -1.522876      0.898888     -1.248962
H      -0.875246     -0.834043     -1.032299
