11
smiles: [C:1]([C:2]#[C:3][H:10])([H:7])([H:8])[H:9].[N:4]1=[C:5]([H:11])[O:6]1
C       -2.21396000      -0.68276800       0.10430900
C       -1.21635100       0.37783900       0.05093400
C       -0.39679800       1.24918700       0.00695200
N        3.77588800      -0.35492800      -0.14397900
C        2.55205800      -0.14071100      -0.11187800
O        2.89610500       1.11433900      -0.12515700
H       -2.17046200      -1.20518300       1.06084600
H       -3.21775300      -0.27316400      -0.01570800
H       -2.04388200      -1.41095900      -0.68982300
H        0.33140700       2.02397000      -0.03426900
H        1.59506400      -0.64837100      -0.08495800
