10
smiles: [C:1]([H:5])([H:6])([H:7])[H:9].[C:2](=[C:3]=[O:4])([H:8])[H:10]
C       -1.82626200       0.26862600      -0.14371100
C        1.80941600      -0.75414400       0.37707300
C        1.68117300       0.46879400      -0.06740300
O        1.56851800       1.54948700      -0.45978500
H       -1.37831200       0.27943900       0.84876400
H       -2.88899900       0.04618000      -0.05997000
H       -1.69577500       1.24324700      -0.61166700
H        0.92654400      -1.32034400       0.62877000
H       -1.34198100      -0.49406600      -0.75158000
H        2.79650100      -1.17612600       0.48379100
