10
Extracted from Q-Chem output
C      -1.148150      0.252180      0.136016
C       0.113566     -0.561321     -0.084429
C       1.377941      0.251436     -0.090394
O       1.428258      1.442241      0.051218
H      -1.111585      0.776110      1.091402
H      -2.029621     -0.389738      0.129251
H      -1.266850      1.006789     -0.641889
H       0.239996     -1.335299      0.682131
H       0.085841     -1.108533     -1.034444
H       2.310604     -0.333865     -0.238863
