14
Extracted from Q-Chem output
C      -1.646085     -1.172400     -0.017537
C      -0.591882     -0.211442      0.519897
C       0.850928     -0.528272      0.103036
C       1.381060      0.790360     -0.397651
O       2.469055      1.107550     -0.772018
C      -0.884025      1.221366      0.108594
N       0.262709      1.677976     -0.358918
H      -2.640561     -0.860764      0.301131
H      -1.464995     -2.188493      0.337630
H      -1.635302     -1.189735     -1.109945
H      -0.675274     -0.193048      1.613350
H       1.492320     -0.901015      0.901024
H       0.904539     -1.247623     -0.717328
H       0.383498      2.625050     -0.691248
