14
Extracted from Q-Chem output
C      -1.622204     -1.177522     -0.039096
C      -0.617946     -0.159442      0.483069
C       0.820728     -0.466403      0.126527
C       1.631555      0.756208     -0.309049
O       2.792827      0.874164     -0.451978
C      -0.985933      1.251596     -0.011165
N      -0.151558      2.011096     -0.453136
H      -2.634814     -0.886326      0.240420
H      -1.417795     -2.170483      0.365354
H      -1.578366     -1.238948     -1.128907
H      -0.725753     -0.084133      1.568939
H       1.371016     -0.904562      0.957337
H       0.884883     -1.149404     -0.724300
H       0.729819      2.374623     -0.792930
