12
Extracted from Q-Chem output
O       1.368525     -1.265431      0.325611
C       0.893277     -0.530456     -0.792379
C       0.629781      0.677693      0.147931
C      -0.867517      0.938156      0.165374
N       0.435444     -0.477328      1.105460
C      -0.884811     -0.583027      0.296972
O      -0.414659     -1.027406     -0.961884
H       1.483760     -0.581785     -1.702661
H       1.415155      1.397556      0.355740
H      -1.354950      1.358754     -0.710466
H      -1.162374      1.447208      1.081788
H      -1.693362     -1.193257      0.683594
