13
Extracted from Q-Chem output
C       1.875207      0.059223     -0.995204
O       0.634127      0.176565     -0.299143
C      -0.943770     -1.021083      1.754265
C      -1.470969      0.139075      1.086111
O      -1.577844      0.062659     -0.333195
C      -0.457030     -0.006045     -1.054051
O      -0.459639     -0.184444     -2.233932
H       1.970442     -0.935281     -1.429073
H       2.646731      0.225506     -0.248126
H       1.939971      0.805604     -1.786043
H      -0.905398     -0.737324      2.822529
H      -1.056622      1.108714      1.388287
H      -2.515921      0.123931      1.458076
