18
Extracted from Q-Chem output
C      -2.240908     -0.278668     -0.481209
C      -1.042834      0.654439     -0.375639
C       0.270961      0.067463     -0.892061
C       0.994885     -0.412628      0.383854
C       2.511680     -0.307211      0.325494
C       0.384965      0.356044      1.541380
N      -0.686658      0.903330      1.038776
H      -3.115372      0.140351      0.021481
H      -2.504432     -0.443733     -1.527305
H      -2.018136     -1.245696     -0.025069
H      -1.281738      1.608127     -0.853688
H      -1.312305      1.443290      1.618088
H       0.105701     -0.727237     -1.620626
H       0.864853      0.844236     -1.379935
H       0.734215     -1.459470      0.593750
H       2.916461     -0.888471     -0.506312
H       2.819882      0.732508      0.191357
H       2.956701     -0.669699      1.252250
