18
Extracted from Q-Chem output
C      -2.217930     -0.349503     -0.496329
C      -1.129032      0.687697     -0.510587
C       0.251733      0.261081     -0.816508
C       0.974931     -0.393768      0.409357
C       2.490487     -0.405350      0.280204
C       0.457525      0.312914      1.628296
N      -0.578445      0.944036      1.556533
H      -3.147814      0.045793     -0.081329
H      -2.448537     -0.712572     -1.505402
H      -1.935189     -1.217473      0.104789
H      -1.424153      1.640905     -0.948950
H      -1.308815      1.534925      1.183015
H       0.269052     -0.494689     -1.609715
H       0.853109      1.108315     -1.154461
H       0.624162     -1.426683      0.528051
H       2.795194     -0.932327     -0.625951
H       2.881534      0.612999      0.227992
H       2.950111     -0.899324      1.135585
