16
smiles: [C:2]1([H:8])([H:9])[C:3]([H:10])([H:11])[C@:4]2([H:12])[C:5]([H:13])([H:14])[C@:6]12[H:16].[O:1]([H:7])[H:15]
O        0.59808500       3.04933900      -0.64416000
C        1.05067600      -0.42715300      -0.03132700
C        0.19863900      -1.67987400      -0.38318200
C       -0.98367100      -1.06162500       0.35683600
C       -1.31475100       0.27079500      -0.23323000
C       -0.15167400       0.16386900       0.69890500
H        1.43884200       2.88498300      -0.21525500
H        1.87712600      -0.67090600       0.63520700
H        1.43608700       0.16194400      -0.86684400
H        0.58122400      -2.58075500       0.09512700
H        0.03680200      -1.88862800      -1.44335600
H       -1.68770400      -1.59779900       0.97879400
H       -1.14913300       0.45324200      -1.29137700
H       -2.19461300       0.75352100       0.17336900
H        0.02931300       2.32698600      -0.37508600
H       -0.11622200       0.72032700       1.62582000
