16
Extracted from Q-Chem output
O       1.140210      1.703450     -0.939825
C       1.442864     -0.288023     -0.181753
C       0.355582     -1.222644     -0.563363
C      -0.805875     -0.867304      0.335977
C      -1.765344      0.154189     -0.193034
C      -0.635827      0.580588      0.690225
H       1.738771      2.334536     -0.525455
H       1.634119     -0.158569      0.872914
H       2.306149     -0.201359     -0.829997
H       0.744953     -2.250963     -0.490557
H       0.097156     -1.084991     -1.617872
H      -1.169804     -1.609155      1.038211
H      -1.731095      0.386505     -1.255228
H      -2.771119      0.142747      0.214868
H       0.394649      1.456826     -0.237602
H      -0.858720      0.940527      1.690843
