13
Extracted from Q-Chem output
N       2.572925      0.268720     -0.536898
C       1.581802      0.521116      0.173622
O       1.056996      1.480621      0.945884
C       0.306326      0.203336      0.737203
C      -1.383556     -1.078186     -0.573049
C      -0.971278      0.292290     -0.044018
H      -0.621321     -1.483767     -1.240369
H       3.230087      1.045908     -0.543031
H       0.284605     -0.403500      1.639577
H      -2.318959     -1.009786     -1.128801
H      -1.533412     -1.791752      0.240023
H      -1.751966      0.702034      0.602665
H      -0.830243      0.993669     -0.868765
