13
Extracted from Q-Chem output
N       1.786672     -0.103696     -0.768455
C       1.317326      0.666666      0.173964
O       1.667707      1.694815      0.761722
C       0.000440      0.102770      0.711313
C      -0.861102     -0.892575     -0.427132
C      -1.293006      0.475409      0.268650
H       0.309188     -1.027062     -0.533593
H       2.679168      0.229402     -1.115149
H       0.070264     -0.477031      1.627347
H      -0.988155     -0.726957     -1.492941
H      -1.350105     -1.766988     -0.021076
H      -2.138999      0.365471      0.934899
H      -1.364282      1.287138     -0.443610
