12
Extracted from Q-Chem output
N      -1.662786     -0.766592     -0.125418
C      -0.380147     -0.280238     -0.139871
O       0.693596     -0.910500      0.643701
C      -0.061998      1.196678      0.146572
O       1.353712      1.103961     -0.073407
C       1.429840     -0.268425     -0.370710
O       0.402393     -0.491241     -1.326245
H      -2.239416     -0.401186      0.614455
H      -1.710925     -1.771445     -0.195720
H      -0.523399      1.872564     -0.572234
H      -0.276096      1.491765      1.174110
H       2.435793     -0.603199     -0.595471
