12
Extracted from Q-Chem output
N      -1.602939     -0.819894      0.206986
C      -0.381907     -0.316277      0.116163
O       0.666759     -1.028861      0.520503
C      -0.039362      1.162061      0.220842
O       1.353649      1.073266      0.001340
C       1.430203     -0.229685     -0.561441
O       0.564229     -0.384911     -1.526373
H      -2.392722     -0.247337     -0.030304
H      -1.703488     -1.816704      0.118371
H      -0.557394      1.763470     -0.527599
H      -0.232352      1.539499      1.227775
H       2.468820     -0.547902     -0.643745
