9
Extracted from Q-Chem output
N      -1.283470     -0.026256     -0.226990
C      -0.068418      0.367883      0.184796
O       0.794529     -0.507832     -0.334802
C       2.127083     -0.261453     -0.013721
O       2.977383     -0.969439     -0.415133
C      -2.394195      0.653705      0.130084
N      -3.362160      1.201518      0.410691
H      -1.411215     -0.844394     -0.817842
H       2.222021      0.628996      0.620945
