9
Extracted from Q-Chem output
N      -1.530751     -0.815770      0.274492
C      -0.344136     -0.260091      0.465474
O       0.672180     -0.631082     -0.309798
C       1.857204      0.084006     -0.130461
O       2.808164     -0.176773     -0.770218
C      -1.536832      0.728476      0.288893
N      -2.077677      1.735112      0.052211
H      -1.666128     -1.399803     -0.562415
H       1.751522      0.862120      0.636964
