21
smiles: [C-:1]([O+:2]=[C:3]([C:4]([C:5]([H:13])([H:14])[H:15])([C:6]([H:16])([H:17])[H:18])[C:7]([H:19])([H:20])[H:21])[H:12])([H:9])[H:10].[H:8][H:11]
C        2.38769800      -1.60620600      -0.47954600
O        1.18996200      -1.11395300      -0.34947300
C        0.78085900       0.00640000       0.12991500
C       -0.69856900       0.23592000       0.24805000
C       -0.91642200       1.72397400       0.53049800
C       -1.41320600      -0.15333900      -1.05169400
C       -1.27380000      -0.59376100       1.40987100
H        2.53795200       0.47125900      -1.70031000
H        2.43576500      -2.56241900      -0.96834400
H        3.23872600      -1.02239900      -0.15749100
H        2.03657700       0.98047700      -1.49131800
H        1.52526500       0.68583300       0.53569100
H       -0.40487300       2.03233100       1.44594500
H       -1.98020200       1.93533500       0.65769200
H       -0.54333100       2.34000800      -0.29063300
H       -1.25510900      -1.20710400      -1.28685400
H       -1.04600100       0.43925700      -1.89192500
H       -2.48916100       0.01310500      -0.95763000
H       -1.11071000      -1.65999900       1.24031800
H       -2.34981000      -0.42652300       1.51179200
H       -0.79699400      -0.32497800       2.35498800
