12
Extracted from Q-Chem output
N      -2.104423      0.217090     -0.256209
C      -0.724740      0.164524     -0.030108
C       0.065353      1.281626      0.161632
N       1.443059      0.614025      0.116769
C       1.334830     -0.771076      0.085708
C       0.017282     -1.058658     -0.022053
H      -2.477435      1.133309     -0.060321
H      -2.626372     -0.491633      0.234900
H       1.111346      1.216950     -0.798578
H       2.204542      1.094056      0.570379
H       2.204100     -1.409231      0.084525
H      -0.395026     -2.052417     -0.131365
