13
Extracted from Q-Chem output
N      -1.757519     -0.562823      0.472693
C      -0.596729     -0.077343     -0.170485
C      -0.312982      1.365333     -0.579597
C       1.004083      1.234418     -0.399325
C       0.853035     -0.226825      0.014344
O       1.590338     -0.984009      0.885945
N       0.188759     -0.917457     -1.120005
H      -2.008217      0.024694      1.256494
H      -1.635742     -1.510519      0.804545
H      -0.921268      2.113767     -1.070906
H       1.852504      1.843396     -0.683137
H       1.632185     -0.525535      1.728793
H       0.072118     -1.890551     -0.829729
