16
Extracted from Q-Chem output
C       2.369234     -0.774457     -1.388602
C       1.626724      0.176001     -0.835161
O       2.122048      1.393049     -0.528862
C       0.147572      0.023277     -0.550391
N      -0.209127      0.868416      0.573035
C      -2.266009     -0.423448      1.136833
C      -1.234690      0.654173      1.274635
H       1.932239     -1.731374     -1.637014
H      -2.305510     -1.011931      2.056658
H       3.412669     -0.603873     -1.614555
H       1.473339      1.803179      0.065802
H      -0.088281     -1.033085     -0.406206
H      -0.407189      0.377004     -1.427469
H      -2.088089     -1.091707      0.297805
H      -3.249829      0.035921      1.014525
H      -1.404325      1.356796      2.093453
