14
smiles: [H:8][H:11].[O:1]([C:2]1=[C:6]([H:14])[C:5]([H:13])=[C:4]([H:12])[C:3]1([H:9])[H:10])[H:7]
O        1.46153300      -1.66972000       0.72725200
C        0.67186200      -0.58807300       0.55989300
C       -0.80232700      -0.79068800       0.41204100
C       -1.30696800       0.61317300       0.24947000
C       -0.27034500       1.45796500       0.30282900
C        0.97930600       0.71728400       0.49767500
H        2.37613600      -1.38855100       0.80484800
H        0.01279200      -0.32935300      -2.90883100
H       -1.02699600      -1.42646600      -0.45004200
H       -1.21903500      -1.28963900       1.29263300
H       -0.14501500       0.16914900      -2.37877500
H       -2.34734500       0.86908300       0.11343000
H       -0.32693300       2.53516200       0.21690100
H        1.96526800       1.15543800       0.57477400
