14
Extracted from Q-Chem output
O       1.482777     -1.685138      0.281903
C       0.656887     -0.623881      0.111019
C      -0.830284     -0.817050      0.226931
C      -1.234451      0.566508     -0.224120
C      -0.238218      1.439657      0.245230
C       0.924719      0.718442      0.449451
H       2.379860     -1.375851      0.425003
H       0.324302     -0.297261     -1.411229
H      -1.222705     -1.636476     -0.372035
H      -1.082978     -0.964841      1.282153
H      -0.491506      0.195456     -1.484855
H      -2.264865      0.851888     -0.391172
H      -0.312502      2.518464      0.250140
H       1.906409      1.128073      0.647149
