11
smiles: [C:1](=[C:2]([C:4](=[O:5])[H:11])[H:9])([H:6])[H:7].[O:3]([H:8])[H:10]
C        1.39895800      -0.73709200       0.69856600
C        0.29779800      -0.06329300       1.00302900
O       -0.69893700       1.62744900      -1.70022800
C       -1.02103200      -0.43723500       0.43363000
O       -1.19600900      -1.35038400      -0.33043200
H        2.36413800      -0.46830400       1.10919600
H        1.35000900      -1.58253000       0.02145500
H        0.19461900       1.28749800      -1.63817000
H        0.31980300       0.78632500       1.67753600
H       -1.22331900       0.90348600      -2.04462100
H       -1.87425600       0.19124500       0.75716300
