10
Extracted from Q-Chem output
O      -2.239188      0.297632     -0.593993
C      -1.558284     -0.822653     -0.646952
C      -0.193970     -0.513876     -0.182826
N       0.662790     -1.506978     -0.154515
O       1.826920     -0.992034      0.302476
C       1.672037      0.318755      0.551465
C       0.413623      0.697107      0.267191
H      -3.136082      0.115550     -0.893565
H       2.544566      0.830255      0.923984
H      -0.034562      1.671018      0.354090
