12
Extracted from Q-Chem output
C       3.116425     -0.602991     -0.946742
C       1.920587     -0.593242     -0.913493
C       0.463494     -0.564021     -0.885625
C      -0.100900     -0.107024      0.443615
C      -2.010776      0.896658      1.310244
O      -1.245186      0.440198      0.186382
H       4.180292     -0.614434     -0.969685
H       0.084337     -1.590796     -0.989273
H       0.064663      0.007371     -1.731174
H      -1.445028      0.714850      2.222251
H      -2.201941      1.959137      1.167684
H      -2.951915      0.348725      1.314366
