12
Extracted from Q-Chem output
O      -1.200936      2.053608      0.266000
C      -0.673870      0.992283      0.123939
C      -1.092975     -0.251464     -0.666379
C      -0.064168     -1.206845     -0.034541
C       1.207177     -0.461603     -0.233334
C       0.495965      0.379107      0.835610
H      -2.139986     -0.496371     -0.491948
H      -0.920873     -0.149508     -1.740249
H      -0.098857     -0.555074      1.328154
H       1.351689      0.062958     -1.175912
H       2.113857     -0.935013      0.130864
H       1.065177      0.812014      1.653210
