14
Extracted from Q-Chem output
C       1.017702      0.622774      0.292299
C       0.963900     -0.827570     -0.144558
O      -0.095269     -1.474632      0.549404
C      -1.298702     -0.867671      0.288005
O      -1.349420      0.515528      0.671870
C      -0.326448      1.310246      0.395534
H       1.414276      0.674360      1.312422
H       1.677182      1.217311     -0.340630
H       0.788539     -0.897793     -1.227764
H       1.872321     -1.377544      0.100245
H      -2.070764     -1.372001      0.864175
H      -1.531294     -0.880502     -0.789725
H      -0.582283      2.016435     -0.727266
H      -0.512075      1.488671     -1.419875
