13
Extracted from Q-Chem output
O       1.450466     -0.159530      1.338398
C       1.274044     -0.264536      0.032178
C      -0.058300     -0.781658     -0.474737
C      -1.243665     -0.215804      0.305815
C      -1.405726      1.218174      0.072305
N      -1.490254      2.343647     -0.133708
H       1.409593      0.944007      0.441373
H       2.119569     -0.607525     -0.587721
H       1.260053      1.033440     -0.504145
H      -0.011280     -1.861604     -0.303493
H      -0.161907     -0.618036     -1.549720
H      -1.075893     -0.371390      1.372721
H      -2.168467     -0.719703      0.023096
