12
Extracted from Q-Chem output
C      -2.328203      0.393256     -0.360001
C      -1.263591     -0.422666     -0.481115
C      -0.397241     -0.462334      0.627899
C       0.990589     -0.725957      0.445186
O       1.264800     -1.913750      0.334462
C       2.008311      0.374049      0.514818
H      -2.589797      0.795489      0.610767
H      -1.001206     -0.872143     -1.438727
H      -2.902294      0.716300     -1.221663
H       1.555279      1.355509      0.364271
H       2.480034      0.356802      1.498742
H       2.775555      0.191084     -0.237265
