16
Extracted from Q-Chem output
C       2.019257      0.201062      1.102899
C       0.910953      0.059494     -1.445871
C       0.164793      0.267542     -0.361633
O       0.633443      0.352239      0.906226
C      -1.326039      0.429671     -0.381191
C      -2.053634     -0.695026      0.352529
H       2.360987     -0.782049      0.764130
H       2.579307      0.976893      0.571315
H       2.191619      0.297820      2.172793
H       0.430847      0.010629     -2.412210
H       1.983722     -0.063406     -1.416122
H      -1.655115      0.479647     -1.419867
H      -1.571224      1.389552      0.083118
H      -1.742452     -0.744460      1.396273
H      -3.133048     -0.536788      0.327204
H      -1.841576     -1.660778     -0.110621
