16
Extracted from Q-Chem output
C       2.396142     -0.064672      0.716010
C       1.037321      0.112251     -1.212601
C       0.064506      0.254751     -0.227467
O       0.445164      0.484187      0.951146
C      -1.417249      0.185317     -0.507013
C      -2.246281     -0.386984      0.634053
H       3.169019     -0.019592     -0.037047
H       2.517535      0.658559      1.509435
H       2.130104     -1.062722      1.028209
H       0.814978     -0.337057     -2.175240
H       1.736467      0.940041     -1.248112
H      -1.563600     -0.382388     -1.428469
H      -1.736518      1.208553     -0.732161
H      -2.097717      0.190606      1.545897
H      -3.308493     -0.372106      0.383955
H      -1.964049     -1.420369      0.844515
