14
Extracted from Q-Chem output
O       1.445717      2.203992     -0.422156
C       0.813377      1.208281     -0.144402
C       1.491481     -0.091592      0.269615
C       0.886748     -1.389464     -0.070948
C      -0.565992     -1.285818     -0.279066
C      -1.289295     -0.027131      0.192430
N      -0.539155      1.143728     -0.206381
H       1.410731     -0.180185      1.373543
H       2.559803     -0.021952      0.068317
H      -0.559848     -1.326639     -1.387126
H      -1.084136     -2.199858      0.019219
H      -1.417607     -0.068399      1.281684
H      -2.287606      0.032673     -0.243180
H      -1.013760      2.001876     -0.430789
