13
Extracted from Q-Chem output
C       1.661935      0.405765      0.576117
C       0.501480     -0.025778     -0.272970
C      -0.355988     -1.196337      0.080254
N      -0.833230      0.148825      0.259215
C      -1.887314      0.664267     -0.466038
O      -2.893828      0.067094     -0.737725
H       1.833872      1.479467      0.481144
H       1.468764      0.183266      1.626159
H       2.572326     -0.112822      0.269805
H       0.605987      0.161170     -1.339726
H      -0.807798     -1.771222     -0.720573
H      -0.148411     -1.746481      0.990911
H      -1.732867      1.725798     -0.728581
