12
Extracted from Q-Chem output
O       2.158334     -0.610447      1.282922
C       1.986199     -0.023319      0.234983
C       0.690135      0.339338     -0.307938
C      -0.470739      0.155309      0.525547
C      -1.752745      0.124386     -0.157938
O      -1.157770     -1.181488     -0.263407
H       2.854571      0.251000     -0.397533
H      -0.086593     -0.819493     -0.765441
H       0.649689      1.110807     -1.070825
H      -0.403868     -0.085711      1.578858
H      -2.662716      0.101213      0.431478
H      -1.849221      0.658448     -1.100123
