11
Extracted from Q-Chem output
C      -1.018541     -0.178453      0.747591
C      -0.091742      0.849869      0.168985
O       1.275002      0.700244      0.537630
C       1.425856      0.431632     -0.813516
C       1.282219     -1.007861     -1.082788
N       1.318300     -2.103270     -1.436649
H      -1.056456     -0.049112      1.830101
H      -2.024184     -0.053158      0.344899
H      -0.676511     -1.190024      0.532096
H      -0.377249      1.894246      0.299705
H      -0.050066      0.821188     -1.007030
