12
Extracted from Q-Chem output
N       1.983057      0.346466     -0.250798
C       0.831557     -0.354747     -0.438041
O       0.702048     -1.290280     -1.177757
N      -0.231467      0.141791      0.373235
C      -1.568626     -0.475372      0.316767
C      -1.525092      0.867974     -0.305892
H       1.938171      1.295414      0.077417
H       2.732256      0.122026     -0.882111
H      -1.550030     -1.401236     -0.252979
H      -2.008950     -0.580311      1.305826
H      -1.318232      0.709221     -1.374034
H       0.040002      0.587987      1.234647
