14
Extracted from Q-Chem output
C       2.378340     -0.822899      0.127756
N       1.001564      1.163931      0.134237
C      -0.303064      1.381644      0.030007
C      -0.958937      0.147943     -0.065570
C      -2.408645     -0.175728     -0.189475
N      -0.029798     -0.800335     -0.017468
N       1.104927     -0.144347      0.105666
H       2.295360     -1.708984      0.753184
H       3.115129     -0.137293      0.536428
H       2.667885     -1.117868     -0.881463
H      -0.703268      2.382574      0.034053
H      -2.536235     -1.252014     -0.297227
H      -2.964414      0.148798      0.692004
H      -2.850287      0.311520     -1.060077
