13
smiles: [C:3](=[C:4]([C:5](=[C:6]([H:12])[H:13])[H:10])[H:9])([H:7])[H:8].[N:1]#[C:2][H:11]
N        2.56460500      -2.59756900       0.70445800
C        1.57612000      -2.02467700       0.65277900
C        0.99275800       1.38214500      -0.47517100
C       -0.10393300       1.46720400       0.26787600
C       -1.11478000       0.40966400       0.40494100
C       -1.51099000      -0.39506500      -0.57363300
H        1.23633100       0.47972000      -1.02511700
H        1.68963500       2.20787400      -0.54601300
H       -0.27905300       2.37214000       0.84412400
H       -1.57439400       0.31235800       1.38519900
H        0.65272500      -1.48950400       0.60556400
H       -1.11877900      -0.29849900      -1.58009700
H       -2.25190300      -1.16601000      -0.40250900
