16
Extracted from Q-Chem output
C       1.566732     -0.704150      0.896313
C       0.584958     -0.344259     -0.169423
C       0.870545      0.503653     -1.168010
C      -0.620256      1.504537      0.472215
C      -1.560738      0.328471      0.453003
N      -1.918319     -0.419586     -0.746069
C      -0.800217     -0.875027      0.058728
H       1.141017     -0.503031      1.880894
H       2.497766     -0.149715      0.793541
H       1.785579     -1.774416      0.839908
H       1.830302      1.001916     -1.203598
H       0.199917      0.685170     -1.997111
H      -0.837384      2.167035     -0.384514
H      -2.290254      0.319640      1.258671
H      -1.632263      0.052996     -1.594890
H      -0.901010     -1.845812      0.529931
