16
Extracted from Q-Chem output
N       2.287537      0.536829     -1.234629
C       1.515988     -0.015362     -0.498675
C       0.933513     -1.055710      0.226842
C      -0.581674     -1.240806      0.041106
C      -1.254035      0.081085     -0.330892
C      -0.821908      1.226391      0.590074
O       0.565256      1.203272      0.810910
H       2.561206      1.499726     -1.114036
H       1.543951     -1.952838      0.286608
H       0.872008     -0.062173      1.090286
H      -1.000192     -1.632661      0.972047
H      -0.777167     -1.989137     -0.731946
H      -0.978159      0.335864     -1.360229
H      -2.341099     -0.028935     -0.315644
H      -1.340856      1.144347      1.555959
H      -1.127890      2.183728      0.149509
