13
Extracted from Q-Chem output
N      -1.199778     -0.838986     -1.361304
C      -0.322090      0.057876     -0.712135
O       0.427442      0.794060     -1.629856
C      -0.755757      0.732066      0.556397
C       0.363366     -0.272243      0.588531
O       1.639538      0.256350      0.817579
H      -2.110823     -0.905741     -0.943544
H      -0.806773     -1.747181     -1.550078
H      -1.698600      0.467506      1.018739
H      -0.462347      1.768189      0.669862
H       0.169375     -1.238423      1.047393
H       1.203149      1.123963     -1.163690
H       2.288312     -0.377586      0.503326
