13
Extracted from Q-Chem output
N      -1.539584     -0.603369     -1.462746
C      -0.575997      0.117786     -0.926457
O       0.271317      0.652316     -1.785282
C      -0.474141      0.357659      0.518031
C       0.864056     -0.337441      0.667045
O       1.701219      0.407434      1.565775
H      -2.296000     -0.935172     -0.891754
H      -1.488583     -0.883523     -2.427396
H      -1.352485      0.001024      1.075388
H      -0.346879      1.428692      0.692015
H       0.709012     -1.352641      1.043368
H       1.095703      0.618426     -1.234788
H       2.580090      0.407646      1.193110
