15
Extracted from Q-Chem output
C       0.805918      1.193332      0.131871
C       0.910309     -0.344603     -0.213826
C       0.423440     -1.362931      0.733390
O      -0.773349     -1.394782      1.223527
C      -1.799941     -0.621409      1.035101
C       0.132485      1.335487     -1.210058
C       0.146532      0.033445     -1.483369
H       0.176961      1.421522      0.995398
H       1.769944      1.689936      0.254937
H       1.945336     -0.608718     -0.444887
H       1.046175     -2.156380      1.116504
H      -1.755666      0.183452      0.320065
H      -2.685437     -0.925686      1.566156
H      -0.227871      2.201697     -1.750416
H      -0.208049     -0.561825     -2.316204
