12
Extracted from Q-Chem output
C       1.246945      1.788633     -1.056694
C       0.518137      0.898980     -0.733229
C       1.591078     -1.735580      0.001463
N       0.341617     -1.407179      0.097246
C      -0.389773     -0.181928     -0.359119
C      -1.342951      0.230795      0.675113
C      -2.132272      0.520377      1.524724
H       1.900341      2.581041     -1.337798
H       2.117161     -0.896659     -0.487475
H      -0.294792     -2.060495      0.538023
H      -0.962584     -0.465725     -1.248939
H      -2.830984      0.789771      2.281682
