12
Extracted from Q-Chem output
C       1.795321      1.690358     -0.220041
C       1.297932      0.628151     -0.459325
C       0.724349     -0.659299     -0.752755
N       0.470444     -1.619810      0.318298
C      -0.673736     -0.983351     -0.330857
C      -1.464574     -0.012794      0.380243
C      -2.133430      0.777505      0.981101
H       2.231740      2.637166     -0.005641
H       1.078454     -1.113064     -1.671592
H       0.638301     -1.179493      1.216739
H      -1.240841     -1.648433     -0.972309
H      -2.723962      1.483063      1.516140
