15
Extracted from Q-Chem output
C      -0.884585      0.643887     -1.404051
C      -0.744316     -0.523107     -0.451087
O      -0.187825     -1.608852     -1.155609
C       0.151097     -0.273234      0.758151
O       0.415463     -1.255527      1.549572
C       1.157070      0.758275      0.831842
O       2.021962      0.522487      1.748245
H      -1.571075      0.374913     -2.206008
H      -1.288020      1.525244     -0.900174
H       0.075965      0.891846     -1.858509
H      -1.730899     -0.799183     -0.056023
H       0.057964     -2.264658     -0.492612
H      -0.327126      0.750027      1.324437
H       1.693757     -0.435361      2.011606
H       1.194286      1.687716      0.276991
