13
Extracted from Q-Chem output
O       0.227112     -2.771938      0.847709
C       1.427888      0.279142      0.235501
C       0.179554      0.785638     -0.506013
C       0.276977     -0.581537      0.025536
C      -0.348219     -1.720323      0.202024
C      -0.678993      1.757701      0.124944
C      -1.392220      2.567175      0.646116
H      -0.394144     -3.499136      0.888733
H       1.600954      0.676777      1.228789
H       2.319702      0.125790     -0.361543
H       0.289409      0.910553     -1.578775
H      -1.360039     -1.867148     -0.164111
H      -2.024076      3.285078      1.112383
