17
Extracted from Q-Chem output
C      -2.537938     -0.590995     -0.687553
C      -1.392392      0.404236     -0.666143
C      -0.111648     -0.143248     -0.079233
O      -0.068075     -1.229907      0.451922
C       1.117978      0.732324     -0.190694
C       2.279053      0.252871      0.668268
O       2.760623     -1.006345      0.264493
H      -3.434874     -0.135317     -1.108467
H      -2.284087     -1.465796     -1.286961
H      -2.768023     -0.941654      0.318217
H      -1.166184      0.781472     -1.669109
H      -1.653490      1.292623     -0.079287
H       1.972840      0.237874      1.722305
H       2.035811     -1.625684      0.400540
H       0.846584      1.763663      0.057024
H       1.417896      0.739160     -1.244898
H       3.112404      0.951715      0.577723
