12
Extracted from Q-Chem output
C      -1.094427     -0.757079     -0.746460
C       0.038790     -0.059241     -0.045736
C       1.185196     -0.818840      0.326970
C       2.143879     -1.496299      0.580143
C      -0.076792      1.288980      0.295639
C      -0.621111      2.443489      0.420204
H      -1.540633     -0.086574     -1.482731
H      -0.734600     -1.662817     -1.233600
H      -1.876586     -1.043546     -0.039426
H       0.087136      0.774443      1.336724
H       3.001204     -2.085212      0.805510
H      -0.528303      3.303502     -0.231364
