12
Extracted from Q-Chem output
N       1.589089      0.081427     -0.524250
C       0.479602      0.074859      0.261707
O       0.661045     -0.049959      1.502989
C      -0.852944      0.195100     -0.296707
C      -1.160488     -0.140452     -1.544894
N      -0.473662     -0.355721      2.303124
H       2.474782      0.084416     -0.046499
H       1.543276      0.611189     -1.376747
H      -1.582251      0.558773      0.419398
H      -0.439555     -0.602904     -2.210438
H      -2.162022      0.003251     -1.929005
H      -0.065695     -0.152533      3.215038
