12
Extracted from Q-Chem output
N       1.793562      0.552641     -0.474091
C       0.846308      0.194906      0.342278
O       0.956504     -0.249566      1.524297
C      -0.650631      0.141025      0.092920
C      -1.240695     -0.397506     -1.075436
N      -0.643471     -0.716662      1.393030
H       2.773118      0.476157     -0.260961
H       1.478410      0.746500     -1.419753
H      -1.035401      1.142495      0.317958
H      -1.001867     -1.412327     -1.369337
H      -2.153145      0.038753     -1.453111
H      -1.111516     -0.208970      2.155921
