14
Extracted from Q-Chem output
C      -1.050947     -1.161992      0.054881
C      -0.569061      0.041225     -0.621813
C       0.529424      0.824338     -0.099384
O       0.523595      1.089661      1.202362
C       1.832460     -0.102967     -0.087291
O       1.886490     -1.272571      0.108116
H      -2.021465     -1.491569     -0.311921
H      -1.038909     -1.054353      1.137153
H      -0.304921     -1.937630     -0.195790
H      -1.630870      1.321745      0.409831
H      -0.792370      0.140847     -1.683880
H       0.754286      1.669361     -0.775588
H      -1.063002      1.442823      0.987472
H       2.720088      0.540002     -0.186979
