13
Extracted from Q-Chem output
C      -0.943020     -0.691939     -0.395410
O      -0.454365      0.509522     -0.938836
C       0.498310      1.165168     -0.210153
N       0.895736      2.327351     -0.452113
N       0.950618      0.399501      0.864084
C       0.529787     -0.936268      0.879399
O       0.012095     -1.428944      1.981319
H      -1.999239     -0.567780     -0.110775
H      -0.775152     -1.145059      0.961700
H      -0.840651     -1.503440     -1.112460
H       0.364066      2.738469     -1.212353
H       0.866499      0.855996      1.761454
H       1.109580     -1.588831      0.215069
