11
Extracted from Q-Chem output
C      -1.921490      0.398559      0.097306
C      -0.839260     -0.616724     -0.118337
O      -0.987821     -1.770256     -0.347561
C       1.514973     -0.760449     -0.079131
O       0.392724      0.011637     -0.020221
N       2.527015      0.076470     -0.006366
H      -2.891767     -0.081448      0.008993
H      -1.812885      0.847938      1.085194
H      -1.826962      1.197574     -0.638876
H       3.457381     -0.299228     -0.025655
H       2.416729      1.082118      0.070282
