11
Extracted from Q-Chem output
C      -1.702377      0.248179      0.249872
C      -0.656244     -0.391107     -0.613025
O      -0.817030     -1.284306     -1.386341
C       0.939394     -0.109997      0.064958
O       0.504966      0.635079     -0.894807
N       2.223141     -0.080276      0.352144
H      -2.188531     -0.530730      0.835219
H      -1.293609      1.007071      0.910723
H      -2.447066      0.695506     -0.411143
H       2.589524     -0.660250      1.083450
H       2.861636      0.493113     -0.184663
