10
Extracted from Q-Chem output
N       1.570430      0.203546      0.378044
C       0.125011      0.145077      0.200169
C      -0.638493      1.267756      0.180638
O      -1.893506      0.659166     -0.008296
C      -1.726901     -0.668241     -0.073131
N      -0.505081     -1.064809      0.047644
H       2.077939     -0.179997     -0.418773
H       1.880927     -0.281158      1.219680
H       1.776363      1.202205      0.464874
H      -2.601081     -1.285814     -0.216595
