10
Extracted from Q-Chem output
N       1.630201      0.138965      0.366905
C       0.224923     -0.123057      0.191306
C      -0.383450      1.070409      0.201053
O      -1.713573      0.741740      0.033370
C      -1.741854     -0.607866     -0.056232
N      -0.597021     -1.205404      0.031700
H       2.229791     -0.084080     -0.419708
H       2.041856     -0.190773      1.232900
H       1.083000      1.328514      0.382653
H      -2.708264     -1.070716     -0.189689
