12
smiles: [O:1]([C:2]([C:3]([H:10])([H:11])[H:12])([H:8])[H:9])[H:7].[O:4]=[C:5]=[O:6]
O        0.66586600       0.37316700      -0.19622800
C       -0.03595200      -0.78252600       0.22245400
C       -0.38497100      -0.75483000       1.69879500
O       -1.02132100       1.21139500      -2.46519700
C       -0.04608300       1.82950500      -2.40309400
O        0.92915200       2.44759900      -2.34097500
H        1.48107600       0.43261000       0.30513800
H        0.53490200      -1.68943900      -0.01647900
H       -0.94529700      -0.80590300      -0.38059200
H       -0.96658500      -1.63672600       1.97614300
H       -0.96962100       0.13511600       1.93706900
H        0.51839500      -0.74571300       2.31511200
