12
Extracted from Q-Chem output
O      -1.111504      0.997454      1.352524
C      -1.094321     -0.222219      0.672101
C       0.253786     -0.767644      0.418189
O       0.438406     -0.406405     -1.771555
C       1.232037      0.449654     -1.319216
O       2.217742      0.999934     -1.717548
H      -1.047246      1.715170      0.718155
H      -1.675792     -0.219158     -0.252435
H      -1.555301     -0.971849      1.337090
H       0.311559     -1.741208     -0.047176
H       1.029073     -0.548775      1.145151
H       0.924237      0.754545     -0.203741
