16
Extracted from Q-Chem output
C       1.127115     -1.121348     -0.294437
C       0.757983      0.202665      0.890450
O       1.614393      1.245973      0.715833
C      -0.113248      0.215101     -1.115555
N      -1.229964      0.750480     -0.409966
C      -1.743775     -0.246660      0.533316
C      -0.670499      0.665053      0.944400
H       0.639504     -1.984195      0.148801
H       2.168883     -1.107249      0.020497
H       1.204832     -1.318164     -1.382316
H       1.179732      2.043152      0.373204
H      -0.410268     -0.437521     -1.935338
H       0.606235      0.966224     -1.430677
H      -1.513020     -1.289393      0.352611
H      -2.755374     -0.047572      0.861599
H      -0.877469      1.455281      1.660846
