12
Extracted from Q-Chem output
C      -1.070953      0.422334      0.318244
C      -0.588227     -0.980212      0.005947
O      -0.101782     -1.147504     -1.314863
C       0.175768      1.256503      0.145006
C       1.240795      0.516643     -0.145091
C       0.849019     -0.916195     -0.268814
H      -1.870343      0.730510     -0.360993
H      -1.464410      0.488220      1.336761
H      -1.073773     -1.848728      0.437473
H       0.169499      2.336877      0.220254
H       2.243577      0.884815     -0.314128
H       1.540500     -1.729654     -0.083251
