14
Extracted from Q-Chem output
C       1.118298     -1.396505     -0.072943
C       0.253043     -0.235846     -0.469488
C       0.862502      1.161974     -0.601599
O       0.476565      0.279731     -1.717413
C      -0.750919      0.257225      0.491174
O      -0.150121      0.676467      1.539577
N      -2.066953      0.307120      0.347585
H       2.160028     -1.148660     -0.286343
H       1.015753     -1.637969      0.984822
H       0.840580     -2.274668     -0.660168
H       0.075978      1.934297     -0.600723
H       0.896573      0.952119      0.852160
H      -2.623249      0.848759      0.986628
H      -2.486966     -0.056706     -0.488473
