12
Extracted from Q-Chem output
O       1.284431      1.426231     -0.112726
C       1.935924      0.332647     -0.189677
O       1.447817     -0.803485     -0.128288
C      -0.442445     -0.851370      0.435573
C      -1.334796     -0.340771     -0.612855
C      -0.954952      0.384849      0.666267
H       3.024782      0.435458     -0.321992
H      -0.272103     -1.803830      0.906695
H      -0.919601      0.038939     -1.542488
H      -2.279178     -0.867469     -0.733724
H       0.233489      1.134502      0.234212
H      -1.505493      0.756476      1.516766
