15
smiles: [C:1]([N:2](/[C:3](=[N:4]\[H:12])[H:13])[H:11])([H:8])([H:9])[H:10].[C:5](=[O:6])=[C:7]([H:14])[H:15]
C       -2.16612300       0.09773600      -0.09354200
N       -1.36739700      -1.09386200      -0.22369000
C       -0.16117300      -1.23691000       0.39874400
N        0.39713500      -0.46377200       1.23782300
C        1.72874300       0.99607900      -1.24976400
O        0.79033000       1.01303800      -1.92336000
C        2.79077400       0.97741800      -0.48715800
H       -3.07848900      -0.01728100      -0.67567600
H       -1.63945200       0.99061400      -0.44889700
H       -2.45339700       0.26183100       0.94858700
H       -1.57948400      -1.72983100      -0.96849400
H       -0.15971500       0.36764300       1.42331800
H        0.35115400      -2.15989600       0.12299500
H        3.69639800       1.45083200      -0.83228500
H        2.74462400       0.48450300       0.47113500
