15
Extracted from Q-Chem output
C      -2.322849     -0.203140      0.032120
N      -1.009064     -0.263744     -0.555769
C       0.105053     -0.041336      0.157281
N       0.311329      0.134946      1.396247
C       1.397737      0.265782     -1.094517
O       0.949928      0.256593     -2.222585
C       2.593601      0.311803     -0.432714
H      -3.063493     -0.425379     -0.733234
H      -2.543016      0.785810      0.448948
H      -2.426412     -0.946202      0.827033
H      -0.882794     -0.150147     -1.553947
H      -0.543880      0.158215      1.946024
H       1.301609     -0.708893     -0.219728
H       3.520776      0.425592     -0.979288
H       2.575447      0.387151      0.645822
