12
Extracted from Q-Chem output
N      -1.855317      0.117258     -0.692754
C      -0.652690      0.009304     -0.191796
C       0.316777      0.682040      0.762052
N       1.603825      1.015350      0.387719
C       1.960118     -0.009278     -0.352162
N       1.146161     -1.066363     -0.441956
C       0.107165     -0.889249      0.553954
H      -2.123210      0.935591     -1.213403
H      -2.490523     -0.665556     -0.699037
H      -0.190300      1.265179      1.524945
H       2.884549     -0.005890     -0.919024
H      -0.188788     -1.690474      1.226512
