11
Extracted from Q-Chem output
N       1.817731      0.103426     -0.399601
C       0.408122     -0.176779     -0.146312
C      -0.108895      1.060061      0.271292
N      -1.409622      1.041010      0.562184
C      -2.003548     -0.153113      0.408550
N      -1.476586     -1.303619      0.010924
N      -0.175884     -1.323140     -0.290039
H       2.467249     -0.379887      0.212646
H       2.107333      0.004090     -1.367503
H       1.467205      1.217973     -0.049443
H      -3.063833     -0.206437      0.636028
