9
Extracted from Q-Chem output
N      -0.919995      0.729314      0.073852
C       0.528149      0.802686      0.075422
C       0.990560     -0.510540      0.135274
N      -0.038755     -1.358417      0.141235
C      -1.129639     -0.593081      0.074881
H      -0.206286      0.985057     -0.944234
H       1.019085      1.743029      0.271833
H       2.014772     -0.852075      0.168270
H      -2.128051     -1.000863      0.005523
