11
smiles: [C:1]([C:2]#[N:3])([H:7])([H:8])[H:9].[O:4]=[C:5]([O:6][H:10])[H:11]
C       -1.66139300      -0.44439200       1.08656900
C       -1.21967000       0.70998900       0.31718700
N       -0.87090300       1.61851400      -0.28898700
O        1.28927500      -0.95825900      -0.23537600
C        2.02307700      -0.32121200      -0.92934800
O        1.77602100       0.91472600      -1.37369500
H       -1.82268800      -0.15994500       2.12577000
H       -0.90630900      -1.22858200       1.04596600
H       -2.59408500      -0.82962000       0.67592400
H        0.91171700       1.18095000      -1.03100000
H        2.99914900      -0.66380700      -1.29694600
