11
Extracted from Q-Chem output
C      -1.453852     -0.535057      0.960000
C      -0.698977      0.354714      0.077700
N      -0.622200      1.334681     -0.576864
O       0.923470     -0.649964      0.020560
C       1.797933     -0.112485     -0.709163
O       1.673441      0.962961     -1.341557
H      -0.937206     -0.632566      1.912781
H      -1.534034     -1.520245      0.504418
H      -2.444352     -0.107036      1.109779
H       0.459228      1.366415     -1.067304
H       2.760738     -0.643055     -0.794286
