10
Extracted from Q-Chem output
N       3.090457     -1.019367      0.563868
C       2.017828     -0.765814      0.250062
C       0.666249     -0.431788     -0.126543
N       0.022770     -1.023246     -1.129876
C      -1.228265     -0.477579     -1.215513
C      -1.303456      0.554660     -0.121917
N      -0.001367      0.497227      0.528144
H      -2.111583      0.312913      0.573975
H      -1.497817      1.543140     -0.547459
H       0.347261      1.030561      1.306399
