18
Extracted from Q-Chem output
C       2.096466     -0.561178     -0.129136
C       0.737425     -0.044731      0.388521
C       0.557242      1.431029      0.040349
C      -0.235233     -1.030335     -0.186696
C      -2.271142     -0.230649      0.700105
C      -0.603214     -0.835828     -1.540632
N      -0.867492     -0.786243     -2.665619
H       2.257047     -1.605598      0.136218
H       2.892194      0.039431      0.313535
H       2.164203     -0.464565     -1.214727
H       0.737398     -0.172222      1.474509
H       1.377266      2.022641      0.452341
H      -0.373205      1.830344      0.445936
H       0.544565      1.576015     -1.042477
H      -1.434489     -1.051798      0.544006
H      -3.158364     -0.861621      0.672055
H      -2.094608      0.187116      1.688227
H      -2.318057      0.534177     -0.065191
