16
Extracted from Q-Chem output
C       1.544164     -0.587176      0.912171
C       0.440272     -0.242009     -0.043158
C       0.668403      0.413749     -1.344727
C      -0.287130      1.083644      0.013409
C      -1.629088      0.312286      0.140555
N      -1.847261     -0.604977     -0.948742
C      -0.926555     -0.992384      0.087057
H       1.156501     -0.740432      1.922177
H       2.297358      0.201833      0.947343
H       2.035571     -1.511660      0.601538
H       1.589528      1.004254     -1.260406
H      -0.231802      1.386082     -1.201766
H       0.049042      1.889863      0.649543
H      -2.466496      0.661940      0.727989
H      -1.350897     -0.337981     -1.797612
H      -1.087759     -1.907911      0.640890
