15
Extracted from Q-Chem output
C       2.294497      0.078310      0.661488
O       1.135050      0.503152     -0.033637
C       0.203295     -0.849128     -0.561661
O       0.801937     -1.817858     -0.815125
C      -1.019270     -0.294017     -0.085558
C      -1.584650      0.939981     -0.753191
O      -1.963334     -1.251108      0.267827
H       2.032296     -0.410629      1.605288
H       2.913308      0.952259      0.861571
H       2.847383     -0.628437      0.040521
H       0.134915      0.387490      0.582974
H      -0.805125      1.637855     -1.055176
H      -2.261089      1.450333     -0.066548
H      -2.155522      0.671112     -1.651443
H      -2.594196     -1.365267     -0.450015
