12
Extracted from Q-Chem output
C      -2.087959      0.046663      0.391147
N      -0.771482     -0.261360     -0.114938
C       1.817906     -0.934163     -0.727595
C       2.381457     -0.171735      0.115716
N       1.354941      0.483431     -0.749135
C       0.076935      0.662774     -0.175600
H      -2.831937     -0.170630     -0.378237
H      -2.307776     -0.601689      1.241713
H      -2.204415      1.092670      0.705027
H       1.638877     -1.834642     -1.281004
H       3.079137      0.121967      0.876232
H      -0.118587      1.696366      0.135344
