12
Extracted from Q-Chem output
C      -1.994020     -0.067370      0.261490
N      -0.617451     -0.148961     -0.175260
C       1.628353     -1.075014     -0.599849
C       2.344732     -0.200940     -0.024023
N       1.471350      0.885290     -0.209901
C       0.148586      0.854891      0.024049
H      -2.661791     -0.323151     -0.564579
H      -2.175584     -0.791965      1.059507
H      -2.274319      0.924504      0.638391
H       1.060957     -1.755869     -1.190413
H       3.327077     -0.106518      0.417483
H      -0.239573      1.820998      0.364231
