13
smiles: [C:1]([C:2]#[N:3])([H:7])([H:8])[H:9].[C:5](=[O:6])([H:11])[H:12].[O:4]([H:10])[H:13]
C       -1.25614000       1.87941600       0.11996200
C       -1.54953200       0.50020700       0.48294300
N       -1.78045900      -0.58565800       0.76936500
O       -0.00354700      -2.50125500      -0.81181500
C        2.16457000      -0.49659900       0.23617200
O        1.50974700       0.13662600      -0.53848400
H       -2.00620500       2.24627400      -0.57978400
H       -1.26314100       2.50681000       1.01052100
H       -0.27468200       1.93876900      -0.34913000
H       -0.72377700      -2.30400800      -0.21188400
H        1.98173300      -1.57376400       0.41438900
H        2.98912800      -0.03943800       0.81638500
H        0.24174400      -1.66079500      -1.20057600
