13
Extracted from Q-Chem output
C      -0.812078      1.672244      0.354740
C      -0.479266      0.233868      0.079937
N      -1.295274     -0.617125     -0.172305
O      -0.309906     -2.360888     -0.336637
C       1.219643     -0.076879      0.161586
O       1.578830     -0.934226     -0.723700
H      -1.879021      1.823449      0.495730
H      -0.270338      1.987344      1.247964
H      -0.461476      2.271970     -0.485365
H      -0.760352     -2.638533     -1.137535
H       1.234676     -0.381357      1.227588
H       1.613987      0.945499      0.043000
H       0.616822     -1.915978     -0.593345
