15
Extracted from Q-Chem output
C      -2.347478     -0.534254     -0.071726
C      -0.853774     -0.328355     -0.000906
O      -0.629630      1.076069      0.241734
C       0.540381      1.558214      0.639303
N       1.722501      0.972527      0.543096
C       2.149056     -0.208339     -0.215705
H      -2.821047     -0.226800      0.860793
H      -2.777542      0.050850     -0.885171
H      -2.572017     -1.587877     -0.247134
H      -0.420346     -0.902151      0.821461
H      -0.374708     -0.630385     -0.933506
H       1.612192      2.211565      0.435647
H       1.848921     -0.153381     -1.264366
H       1.750332     -1.126334      0.217266
H       3.235403     -0.258548     -0.167956
