16
Extracted from Q-Chem output
C       2.480081      0.408299     -0.022485
C       1.239781     -0.199217     -0.678329
C       0.036429     -0.255011      0.070184
O       0.162083     -1.106544      1.025805
C      -1.255379      0.449183     -0.166629
C      -2.489245     -0.254424      0.378191
H       3.385788     -0.017001     -0.456832
H       2.526086      1.493450     -0.162459
H       2.509459      0.208228      1.049873
H       1.134742     -1.341399      0.279274
H       1.146788      0.052327     -1.733473
H      -1.333642      0.633659     -1.241370
H      -1.139373      1.441914      0.285811
H      -2.394348     -0.432509      1.448791
H      -3.381616      0.348691      0.205783
H      -2.632177     -1.220935     -0.107335
