9
Extracted from Q-Chem output
C       1.248839      0.082049      0.526145
C       1.196653     -0.003566     -0.881962
C      -0.167985     -0.046576     -1.033238
C      -0.914119      0.012740      0.248385
O       0.129899      0.097524      1.221223
H       2.126421      0.140506      1.165637
H      -0.709125     -0.113151     -1.973386
H      -1.507291     -0.878241      0.469457
H      -1.548770      0.895691      0.359129
