12
Extracted from Q-Chem output
O      -2.007722     -0.082939     -0.315668
C      -0.954266     -0.739144      0.327272
C       0.396455     -0.427566     -0.352400
C       0.681102      1.009382     -0.304208
C       0.850904      2.192035     -0.256635
C       2.230813     -1.833851      0.810297
N       1.428267     -1.184130      0.272817
H      -1.918765      0.863105     -0.172573
H      -0.879441     -0.479443      1.388956
H      -1.139606     -1.810101      0.244354
H       0.331544     -0.738658     -1.398206
H       1.026172      3.241910     -0.217956
