16
Extracted from Q-Chem output
C      -0.836047      0.276747     -1.296022
C      -0.829573      0.083915      0.216389
C      -0.673694     -1.385870      0.589793
C       0.245962      0.954283      0.891463
C       1.612130      0.628430      0.485968
C       2.727774      0.353286      0.147312
H      -1.644387     -0.294722     -1.756510
H       0.106613     -0.061173     -1.733184
H      -0.973020      1.326989     -1.563827
H      -1.788553      0.437987      0.610200
H      -0.698913     -1.527856      1.672702
H      -1.476364     -1.983651      0.153573
H       0.277042     -1.779245      0.222039
H       0.057928      2.007861      0.665607
H       0.171374      0.848929      1.977686
H       3.721727      0.114092     -0.148159
