16
Extracted from Q-Chem output
C      -1.438777      0.359083     -1.022719
C      -0.855969     -0.098767      0.292982
C      -0.293548     -1.374378      0.384325
C       0.628777      1.432278      0.547814
C       1.756990      0.684247      0.546982
C       2.235399     -0.475643      0.498430
H      -2.351667     -0.199813     -1.246437
H      -0.736441      0.181938     -1.840403
H      -1.696342      1.418887     -1.019261
H      -1.357182      0.274278      1.178958
H      -0.302263     -2.000036     -0.504093
H       1.122460     -1.142306      0.416592
H      -0.371118     -1.912468      1.322875
H       0.401533      2.027311     -0.330233
H       0.306379      1.873491      1.485653
H       3.162496     -1.016568      0.516884
