15
smiles: [C:1]([C:2]([O:3][H:11])=[C:4]([H:12])[H:13])([H:8])([H:9])[H:10].[C:5]([O-:6])(=[C+:7][H:15])[H:14]
C        1.26844400       0.96753300      -0.25048100
C        0.23163100       0.76417300       0.80871900
O        0.32175700      -0.41199200       1.49578900
C       -0.73334100       1.62470900       1.10392000
C       -1.23168800      -1.42250300      -0.91969700
O       -0.74361400      -1.03548800      -2.00531600
C       -0.19653300      -2.27739000      -0.70436800
H        1.13930100       1.92751800      -0.74560200
H        2.27242900       0.93765000       0.18345100
H        1.20391100       0.17934000      -1.00647400
H        1.07017100      -0.91825600       1.17684700
H       -1.45123800       1.40796800       1.88311300
H       -0.81367200       2.55738700       0.56588100
H       -2.11456700      -1.02822500      -0.41428800
H       -0.22858400      -3.26561100      -1.15970800
