15
Extracted from Q-Chem output
C       1.457210      0.719879     -0.200250
C       0.466028      0.433656      0.842422
O       0.772080     -0.467333      1.758497
C      -0.840357      0.843175      0.767137
C      -1.312127     -0.523799     -0.584296
O      -0.883666     -0.189717     -1.778229
C      -0.395720     -1.528293     -0.952040
H       1.304539     -0.126061     -0.908995
H       1.266822      1.655484     -0.716578
H       2.477728      0.689283      0.181829
H       1.552087     -0.964431      1.485996
H      -1.496392      0.596163      1.592406
H      -1.074358      1.726617      0.190102
H      -2.354242     -0.487185     -0.279752
H      -0.945228     -2.370631     -1.386462
