15
Extracted from Q-Chem output
C       1.733162     -0.169044      1.453751
C       1.008964      0.239451      0.199125
C      -1.055900     -0.273370     -1.242409
C      -0.458482     -0.069439      0.124488
O      -1.013852     -0.752590      1.207969
C      -1.330482      0.986327     -0.493270
O       1.565762      0.802569     -0.713538
H       2.758592      0.189640      1.409176
H       1.729238     -1.257197      1.553390
H       1.222058      0.226745      2.332352
H      -1.851430     -1.004126     -1.307553
H      -0.373828     -0.226964     -2.080442
H      -0.895619     -1.695162      1.074423
H      -2.302909      1.100459     -0.034297
H      -0.840426      1.890912     -0.826093
