17
smiles: [C:1]([C:2](=[C:3]([H:12])[H:13])[H:11])([H:8])([H:9])[H:10].[C:4]1([H:14])=[C:7]([H:17])[C:6]([H:15])([H:16])[O:5]1
C        1.89111500       1.22031600      -0.41597700
C        2.04515300      -0.16939100      -0.94606700
C        1.38247900      -1.22861500      -0.50822900
C       -1.79452000      -0.24715200       1.70099300
O       -1.33913500       0.89107300       1.07647100
C       -1.92226800       0.34364600      -0.14830200
C       -2.36294600      -0.84758700       0.65868400
H        1.57854900       1.90730700      -1.20667200
H        2.84075800       1.59718500      -0.02720400
H        1.15263300       1.26216300       0.38582700
H        2.76315400      -0.29865900      -1.75285800
H        0.65693900      -1.14937500       0.29513700
H        1.53837600      -2.21199300      -0.93492400
H       -1.62638500      -0.40829800       2.75731800
H       -1.14681600       0.18115300      -0.89760000
H       -2.69963800       1.00860100      -0.52598500
H       -2.89453200      -1.76230400       0.46775600
