16
Extracted from Q-Chem output
C       1.880544      0.990739     -0.430147
C       0.910606     -0.519054      0.682672
C      -0.564138     -0.542343      0.992016
C      -1.024151     -1.222944     -0.347018
C      -0.468861      0.076236     -0.947024
C      -1.027414      0.784941      0.319306
N       0.973307     -0.056158     -0.580010
H       2.689616      1.091991     -1.141418
H       1.760829      1.701917      0.372994
H       1.744359     -0.991303      1.170077
H      -0.910339     -0.868895      1.967615
H      -0.554722     -2.161027     -0.642962
H      -2.109528     -1.279136     -0.410926
H      -0.635245      0.414345     -1.965377
H      -0.551667      1.714581      0.628201
H      -2.110959      0.896421      0.298564
