15
Extracted from Q-Chem output
C      -0.928777      1.049200      0.501524
C      -0.249986     -0.316908      0.590183
C      -1.205417     -1.371508      0.078294
O      -0.977398     -2.151615     -0.803991
C       1.102581     -0.400948     -0.096839
C       1.426333      0.388515     -1.326003
C       2.002872      0.786897     -0.246479
H      -1.890782      1.042323      1.017655
H      -0.308291      1.820699      0.958511
H      -1.101810      1.335826     -0.537980
H      -0.116986     -0.552195      1.656694
H       1.264869      0.488071     -2.384758
H      -2.193770     -1.381862      0.590360
H       1.556862     -1.386199      0.007326
H       2.678069      1.463461      0.247667
