12
Extracted from Q-Chem output
O      -2.500932      0.768646      0.649866
C      -1.590810      0.117428     -0.174520
C      -0.185686      0.196800      0.054770
N       0.391570      0.077113     -1.151261
N       1.611903     -0.506562     -0.881394
C       1.789548     -0.345110      0.457889
N       0.731000      0.096275      1.071564
H      -2.514794      1.695626      0.411906
H      -0.717431     -0.054444     -1.625550
H      -1.900230     -0.906137     -0.375795
H       2.333897     -0.480434     -1.580099
H       2.719648     -0.619146      0.938244
