14
Extracted from Q-Chem output
C       1.893449     -0.000632     -0.429075
C       0.870112      0.997463      0.046012
C      -0.573601      0.736617     -0.367350
C      -1.234217     -0.140120      0.658211
C      -1.687704     -1.362430      0.429068
O       1.157268      1.940333      0.738249
H       2.035912      0.120532     -1.506367
H       1.536938     -1.019178     -0.261500
H       2.841431      0.157437      0.079994
H      -1.079593      1.702585     -0.416436
H      -0.610862      0.257750     -1.348377
H      -1.313969      0.287285      1.654217
H      -2.147989     -1.948626      1.214787
H      -1.624677     -1.818837     -0.553595
