14
Extracted from Q-Chem output
C      -2.090250     -0.703146     -0.290770
C      -0.879414     -0.619958      0.246991
C       0.066792      0.473296     -0.035254
N      -0.486984      1.650119     -0.442256
C       1.416345      0.331068      0.073145
C       2.123323     -0.883090      0.425673
O       1.654864     -1.985381      0.628698
H      -2.457272      0.015411     -1.015524
H      -2.746525     -1.529177     -0.048893
H      -0.509765     -1.396899      0.901538
H       0.111565      2.448998     -0.549637
H      -1.438276      1.842403     -0.186510
H       2.042006      1.198144     -0.113925
H       3.219917     -0.738397      0.517588
