19
smiles: [C:1]([C:2]([O:3][C@@:4]1([H:13])[C:5]([H:14])([H:15])[C:6]1)([H:11])[H:12])([H:8])([H:9])[H:10].[C:7]([H:16])([H:17])([H:18])[H:19]
C        2.24042900       0.79032300      -0.33450400
C        1.55120300      -0.53543900      -0.12136500
O        0.48066400      -0.34051100       0.79470400
C       -0.27747300      -1.48027200       0.98904200
C       -1.69413900      -1.37348000       1.42412600
C       -1.38744800      -1.60999500      -0.00231700
C       -1.57138500       1.76082200      -1.25313800
H        2.62812500       1.18063200       0.60737200
H        1.54393000       1.51951100      -0.74977000
H        3.07353200       0.67213800      -1.02917200
H        2.24828800      -1.27803000       0.29033100
H        1.15345000      -0.93286200      -1.06121600
H        0.24585500      -2.36231000       1.35489400
H       -2.24211400      -0.45729200       1.62421000
H       -1.99065500      -2.20825100       2.05081900
H       -1.76141300       0.71128400      -1.47289200
H       -0.90599800       2.17504400      -2.00911400
H       -2.51245900       2.30854700      -1.25750700
H       -1.10507900       1.84706200      -0.27283200
