19
Extracted from Q-Chem output
C       2.553755      0.820277     -0.010137
C       1.545548     -0.280709     -0.238305
O       0.534211     -0.175890      0.748509
C      -0.442073     -1.154585      0.617320
C      -1.783969     -0.861580      1.174334
C      -1.643221     -1.096259     -0.309490
C      -1.622044      1.024163     -0.955162
H       2.995215      0.737218      0.983723
H       2.080654      1.800192     -0.093444
H       3.352864      0.759013     -0.750557
H       2.023147     -1.267074     -0.171016
H       1.097394     -0.204997     -1.237875
H      -0.047848     -2.168835      0.697159
H      -1.906732      0.148376      1.548279
H      -2.340250     -1.606394      1.732621
H      -1.836094     -0.178302     -1.161947
H      -1.383745      1.286485     -1.985932
H      -2.582831      1.417994     -0.638132
H      -0.816018      1.272370     -0.277292
