14
Extracted from Q-Chem output
C      -1.997895     -0.540735      0.256961
C      -0.660072     -0.079253     -0.273129
O      -0.154894      1.004580      0.501776
C       1.221131      1.092119      0.194696
C       1.604642     -0.352270     -0.139553
C       0.385955     -1.044698     -0.604254
H      -2.696406      0.294130      0.303168
H      -1.875864     -0.943531      1.262764
H      -2.403740     -1.319794     -0.386014
H      -0.780591      0.251102     -1.343858
H       1.744410      1.513815      1.052376
H       2.500934     -0.509546     -0.738123
H       1.754777     -0.928583      0.794693
H       1.383268      1.746481     -0.673738
