19
Extracted from Q-Chem output
C       2.022603      0.207976     -0.568875
C       1.022591     -0.066609      0.547415
C      -0.464549     -0.145173      0.142649
C      -0.705889     -1.213804     -0.923400
C      -1.360585     -0.217682      1.329032
C      -0.904375      1.171376     -0.390719
O      -1.082589      2.214334      0.343996
H       1.843495      1.171408     -1.053508
H       1.996870     -0.564237     -1.339612
H       3.037095      0.234920     -0.168353
H       1.122995      0.694226      1.327498
H       1.238265     -1.024690      1.029753
H      -0.202675     -0.981783     -1.867792
H      -0.336698     -2.172502     -0.558898
H      -1.773464     -1.322427     -1.125771
H      -0.896474     -0.332370      2.303384
H      -2.315329     -0.708157      1.188989
H      -1.102683      1.351065     -1.449767
H      -1.142762      1.776179      1.258114
