11
Extracted from Q-Chem output
C      -1.113579     -0.450517      0.420816
C       0.000989      0.349294     -0.195764
C       1.284403     -0.023235     -0.278893
O       1.819794     -1.166494      0.166322
C      -0.340284      1.624585     -0.743748
N      -0.646165      2.645570     -1.176071
H      -1.567548      0.090862      1.252209
H      -1.895825     -0.652542     -0.312406
H      -0.772502     -1.413127      0.806263
H       1.147041     -1.718682      0.575309
H       2.026420      0.614599     -0.742383
