11
Extracted from Q-Chem output
O       1.040178      1.575790     -0.808502
C       0.703474      0.771400      0.188679
C      -1.210362     -0.190692      0.090841
N      -0.276553     -1.232205      0.239693
C       0.959398     -0.676998      0.027701
O       2.021302     -1.219887     -0.168157
H       1.103914      2.478707     -0.483971
H      -0.452116      0.830281      0.655882
H      -2.049175     -0.191700      0.787136
H      -1.494688      0.069922     -0.926434
H      -0.455138     -2.182410      0.515497
