17
Extracted from Q-Chem output
C      -1.658765      0.082888      1.150833
C      -1.953467      0.188550     -0.290096
C      -0.876386     -0.801564      0.213158
C       0.643096     -0.576330      0.040883
C       0.325247     -0.374227     -1.348147
C       2.317704      1.029226      0.296341
O       1.082973      0.540126      0.765400
H      -1.106267      0.886245      1.616131
H      -2.356192     -0.443426      1.789090
H      -2.849698     -0.272086     -0.682843
H      -1.624913      1.071882     -0.812151
H      -1.158612     -1.843721      0.188680
H       1.169641     -1.481543      0.370182
H       0.166514     -1.371406     -1.789011
H       2.255889      1.292243     -0.764558
H       3.117220      0.289812      0.438186
H       2.554036      1.918602      0.878385
