17
Extracted from Q-Chem output
C      -1.731414      0.400685      1.034358
C      -2.095424     -0.188830     -0.288115
C      -0.938961     -0.751339      0.503028
C       0.469715     -0.535933      0.025506
C       0.527536      0.588083     -1.008386
C       2.399194      0.472857      0.336756
O       1.335157     -0.066307      1.056517
H      -1.245640      1.367225      1.025753
H      -2.377218      0.210007      1.880734
H      -2.985635     -0.797767     -0.369190
H      -1.876568      0.410205     -1.165111
H      -1.106499     -1.714229      0.969844
H       0.875091     -1.498598     -0.327792
H       0.807627      0.159614     -1.988691
H       1.947456      1.113028     -0.512000
H       3.060256     -0.287559     -0.096555
H       2.960381      1.185488      0.940668
