18
Extracted from Q-Chem output
C       1.768137      0.919591     -0.896039
C       0.870438     -0.004767     -0.142169
C       1.243110     -1.092483      0.812079
N       0.499238      0.083718      1.189670
C      -0.717470      0.178166      1.682736
C      -1.824903     -0.466966     -0.491649
O      -2.255059      0.820550     -0.907681
H       1.285926      1.887366     -1.046949
H       1.979479      0.497109     -1.879581
H       2.724591      1.087273     -0.391259
H      -0.449187     -0.359779     -0.479327
H       2.231650     -1.168016      1.256674
H       0.680043     -2.024920      0.747608
H      -0.985584     -0.456418      2.519319
H      -1.274027      1.088711      1.498673
H      -1.878092     -1.193014     -1.315142
H      -2.536168     -0.803807      0.257483
H      -1.600830      1.169919     -1.515049
