17
Extracted from Q-Chem output
O       1.582623      0.758348     -0.850913
C       2.205524      0.213847      0.139527
C       2.064453     -1.115055      0.417967
C      -0.133769     -0.861430      0.929160
C      -0.676543     -0.050714     -0.045255
C      -1.786313     -0.173917     -1.013327
C      -1.694665      1.023476     -0.073196
H       2.689977      0.880321      0.860047
H       1.767015     -1.794780     -0.368613
H       2.541188     -1.542448      1.291153
H       0.049109     -0.477569      1.925282
H      -0.186731     -1.939861      0.851548
H       0.472235      0.428343     -0.657265
H      -1.591461      0.010919     -2.063414
H      -2.563877     -0.905229     -0.823933
H      -1.441151      1.980281     -0.514004
H      -2.409998      1.079609      0.739426
