17
Extracted from Q-Chem output
C       2.129680      1.066822     -0.664595
O       0.751346      0.865408     -0.415813
C       0.359085     -0.432607     -0.435327
C       0.033304     -1.529049      1.336605
O      -1.110621     -1.789586      0.575915
C      -1.157140     -0.676884     -0.302346
C      -1.955666      0.494078      0.233207
H       2.737543      0.584352      0.107173
H       2.411879      0.671477     -1.646122
H       2.303524      2.139972     -0.641486
H       0.808790     -1.003481     -1.261863
H      -0.103362     -0.554623      1.848262
H       0.917110     -1.193540      0.460017
H      -1.592667     -1.001585     -1.253409
H      -1.907162      1.335194     -0.459129
H      -2.996366      0.187816      0.339760
H      -1.587343      0.832393      1.201002
