12
Extracted from Q-Chem output
N       1.827852     -0.449552     -0.054631
C       0.398888     -0.135851     -0.016559
C      -0.178880      1.079294      0.105975
N      -1.523343      0.750109      0.084898
C      -1.684067     -0.644657     -0.051397
O      -2.771179     -1.197173     -0.099452
N      -0.421064     -1.184843     -0.112591
H       2.039430     -0.924747     -0.933770
H       2.406958      0.381390      0.037355
H       0.203645      2.080930      0.204116
H      -2.299920      1.381310      0.145111
H       2.039486     -1.105955      0.699030
