16
Extracted from Q-Chem output
C      -1.450646      1.739958     -0.425107
C      -0.348980      0.734006     -0.400309
C      -0.358856     -0.597425     -0.869480
C      -0.246149     -1.828836      0.632653
C       0.972363     -1.063331     -0.475530
C       1.720783      0.001232      0.077763
N       0.873137      1.042676      0.105814
H      -2.165175      1.456715     -1.195842
H      -1.095048      2.750433     -0.645984
H      -1.991745      1.778637      0.526688
H      -0.595661     -2.729163      0.145233
H      -1.074110     -1.306772      1.094453
H       0.494020     -2.063962      1.397011
H       1.434810     -1.966101     -0.851475
H       2.735908      0.079972      0.430896
H       1.130909      1.954478      0.454593
