12
smiles: [C:1]([N:2]=[C:3]=[N:4][H:11])([H:7])([H:8])[H:9].[C:5](=[O:6])([H:10])[H:12]
C        1.07983000      -0.63888200       0.82300300
N       -0.29105100      -0.40641600       0.42685900
C       -1.16356900      -1.21421900       0.22280900
N       -2.13928700      -1.94506400       0.11998600
C        0.15899000       2.16402200      -0.88725900
O        1.33635800       2.13106700      -1.09356000
H        1.74747400      -0.28698800       0.03599400
H        1.28784300      -1.69257300       1.02150900
H        1.29098600      -0.06040200       1.72229400
H       -0.57768900       1.82984400      -1.64278900
H       -2.34790800      -2.32866600      -0.79045600
H       -0.25755700       2.53199400       0.06995400
