12
smiles: [C:3]1([H:7])=[N:6][C:5]([H:10])([H:11])[C:4]1([H:8])[H:9].[N:1](=[C:2])[H:12]
N        2.30231400      -1.45278600      -1.52962500
C        3.15727300      -1.97784400      -2.11684000
C        0.14634000       0.19879000       1.13913100
C       -1.20521300       0.84510700       1.07626600
C       -1.05941600       0.41211300      -0.40404700
N        0.27254200      -0.16231800      -0.07981600
H        0.87192100       0.03730800       1.93470600
H       -1.99794400       0.35647000       1.64428200
H       -1.23513900       1.91901200       1.26498700
H       -0.99885600       1.21936100      -1.13520100
H       -1.76700700      -0.34049800      -0.75440600
H        1.56940300      -1.00308800      -1.02670900
