16
smiles: [C:1]([C:2](=[C:4]([N:5]([C+:6]([O-:7])[H:16])[H:15])[H:14])[H:11])([H:8])([H:9])[H:10].[O:3]([H:12])[H:13]
C       -1.92422500      -1.35294600      -0.23764700
C       -0.57343700      -0.71470500      -0.29905900
O       -0.53767600       2.62100500      -0.39298100
C        0.22057500      -0.63181900       0.76194600
N        1.49938400      -0.05482900       0.82803800
C        2.19075000       0.55634700      -0.17066100
O        1.81694100       0.70180100      -1.30865500
H       -1.99451200      -2.18993500      -0.93704700
H       -2.70496000      -0.64048100      -0.51615700
H       -2.15073100      -1.72776900       0.76240800
H       -0.24131800      -0.30740600      -1.24459200
H        0.15806200       2.27378700      -0.95240000
H       -0.91626900       1.85820700       0.04577800
H       -0.09720100      -1.03509800       1.71805700
H        1.95917000      -0.08732300       1.72025200
H        3.17181500       0.92251500       0.18266600
