14
Extracted from Q-Chem output
O       2.623203      0.443277     -0.222544
C       1.265597      0.348266     -0.539268
C       0.524396     -0.908602     -0.073714
C       0.301626     -0.430467      1.383726
C      -2.084617     -0.206843      0.165754
N      -0.654701     -0.125378      0.288195
C       0.367653      0.882682      0.564753
H       3.136745      0.050556     -0.929399
H       1.070769      0.695570     -1.565278
H       0.445829     -1.919134     -0.456976
H      -2.387670     -1.240011      0.331802
H      -2.411948      0.124775     -0.821108
H      -2.536018      0.415988      0.937135
H       0.118830      1.883556      0.894454
