15
Extracted from Q-Chem output
C      -2.325504     -0.362534      1.193293
C      -1.907990     -0.627844     -0.032544
O       1.371373      1.906179     -1.327700
C       2.103163      1.134303     -0.777990
C       1.673064      0.055413      0.189545
O       0.323456      0.025288      0.503661
C      -0.507376     -0.466721     -0.524147
H      -1.645051      0.003587      1.951372
H      -3.363080     -0.502119      1.469390
H      -2.607045     -0.988314     -0.782321
H       3.202220      1.160127     -0.951157
H      -0.496492      0.212784     -1.384417
H       2.030785     -0.905884     -0.219053
H       2.228985      0.218437      1.119525
H      -0.129587     -1.441578     -0.871829
