15
Extracted from Q-Chem output
C      -1.579980      0.087610      0.848530
C      -1.105453     -0.000785     -0.573091
O      -0.226370      0.919871     -1.138554
C       1.035933      1.017811     -0.505550
C       1.547338     -0.342234     -0.088987
O       0.687885     -0.913734      0.878897
C      -0.630011     -1.005570      0.428966
H      -1.147626      0.853027      1.479975
H      -2.612116     -0.157412      1.061845
H      -1.819859     -0.328790     -1.317067
H       0.975731      1.669690      0.375801
H       1.706153      1.481048     -1.231059
H       1.629699     -0.996806     -0.966432
H       2.528319     -0.255914      0.379256
H      -0.989643     -2.027811      0.367470
