10
Extracted from Q-Chem output
C      -1.175542     -0.397995     -0.080759
C      -0.377184      0.821289      0.136686
N      -0.210539      0.024154     -1.110424
O       1.056833     -0.617197     -0.892885
C       1.510658     -0.161998      0.291023
N       0.802893      0.664698      0.930908
H      -0.929914     -1.269409      0.513656
H      -2.197369     -0.328932     -0.429374
H      -0.791550      1.817565      0.056403
H       2.473053     -0.555284      0.592961
