11
smiles: [C-:4]#[O+:5].[O:1]([C:2]([C:3]([H:7])([H:9])[H:10])([H:8])[H:11])[H:6]
O       -0.69414800       0.54629300      -0.96892800
C       -0.70320800       0.19001600       0.40276800
C       -0.26072400      -1.25033400       0.51596700
C        2.05987100       1.79275800      -1.07756700
O        2.74658100       0.91917300      -1.24310900
H       -0.97793800       1.45704400      -1.05547300
H       -0.93612000      -1.90033500      -0.04211000
H       -1.70937100       0.30744700       0.82607600
H        0.74425200      -1.37253000       0.10930800
H       -0.25447700      -1.56856700       1.56006400
H       -0.02582200       0.83716900       0.97517100
