14
Extracted from Q-Chem output
O       0.784766      1.796422      1.360231
C       0.453376      0.899445      0.397841
C       1.373459     -0.162738     -0.042308
C       0.442470     -1.336683      0.091280
C      -0.755302     -1.265038     -0.575988
C      -1.264766     -0.020672     -0.929595
N      -0.687854      1.038058     -0.262512
H       2.227085     -0.218878      0.629337
H       1.732160     -0.004553     -1.073742
H       0.753522     -2.221963      0.629853
H      -1.358772     -2.148497     -0.748853
H       0.079333      1.875863      2.007237
H      -2.179068      0.173894     -1.464058
H      -1.215343      1.888709     -0.136508
