14
Extracted from Q-Chem output
O       0.179848      1.224935      1.398401
C       0.611772      0.985985      0.220298
C       1.547792     -0.113465     -0.136267
C       0.577320     -1.272154     -0.018168
C      -0.755247     -1.075043     -0.180224
C      -1.349553      0.201342     -0.373984
N      -0.362768      1.270558     -0.722063
H       2.346426     -0.227738      0.596884
H       1.970962      0.042714     -1.125328
H       0.934158     -2.177321      0.460446
H      -1.435684     -1.905078     -0.024074
H      -0.891539      0.846485      1.187373
H      -2.286117      0.262822     -0.918984
H      -0.795951      2.148983     -0.460307
