16
Extracted from Q-Chem output
C      -1.050098     -1.057609      0.195140
C      -1.832534     -0.088659      1.068993
C       0.147722      0.911012     -0.982793
C       1.572002      1.130678     -1.170906
C       1.309348      0.393417      0.203842
C       0.129778     -0.456841     -0.537068
H      -0.697999     -1.904813      0.792661
H      -1.712775     -1.486257     -0.564024
H      -2.687050     -0.590586      1.526063
H      -1.213178      0.309591      1.875854
H      -2.192658      0.757983      0.486224
H       2.184263      0.456461     -1.778534
H       1.931417      2.154902     -1.176213
H       1.089203      0.970739      1.090352
H       2.101723     -0.327954      0.362419
H       0.700227     -1.212884     -1.093449
