14
Extracted from Q-Chem output
O       2.307728      0.020017      0.424319
C       1.241205      0.375505     -0.409551
C       0.121601     -0.636942     -0.642364
C      -0.465961     -0.466903      0.782376
C      -1.811210     -0.160357      0.150260
N      -0.885653      0.503439     -0.843715
C       0.028956      0.926714      0.315458
H       2.984482     -0.409603     -0.100604
H       1.557384      0.940806     -1.292487
H       0.088131     -1.524577     -1.274760
H      -0.203164     -1.007062      1.691694
H      -2.382566     -0.988400     -0.276127
H      -2.474254      0.541183      0.662093
H      -0.106678      1.886181      0.813406
