18
smiles: [C:1]([C:3](/[C:2](=[N:4]/[C:6](=[O:7])[H:18])[H:11])([H:13])[H:14])([H:8])([H:9])[H:10].[C:5]([H:12])([H:15])([H:16])[H:17]
C       -2.15059200      -1.10300300      -0.98981300
C        0.01192400       0.13508400      -0.87778400
C       -0.97854400      -0.67115600      -0.10823100
N        1.23112900      -0.18506100      -0.97343000
C        0.91914400       0.86232100       2.66188000
C        2.07375700       0.57702200      -1.78445700
O        1.89211600       0.79164900      -2.95152600
H       -1.81205300      -1.75106900      -1.79956700
H       -2.88789300      -1.65157000      -0.40349200
H       -2.65150100      -0.24154800      -1.43644400
H       -0.36853600       1.03515500      -1.37869800
H        0.10024900       0.34318500       3.15763700
H       -1.35205100      -0.05291100       0.71529100
H       -0.46974600      -1.53178900       0.32679400
H        1.66051400       1.16022800       3.40173700
H        1.38103200       0.19898300       1.93224700
H        0.53397400       1.74689700       2.15702200
H        2.97830400       0.91857400      -1.25350300
