11
Extracted from Q-Chem output
O       1.758754      0.813153     -0.723753
C       0.608312      0.277567     -0.234770
C      -0.175703     -1.025138     -0.261291
N      -1.509233     -0.417892     -0.477572
C      -0.792646      0.697026      0.183988
C       0.080844     -0.231917      1.005825
H       2.403994      0.879546     -0.017559
H       0.130999     -2.033781     -0.500904
H      -1.652386     -0.213889     -1.465829
H      -1.192546      1.663829      0.456354
H       0.333853     -0.407742      2.036097
