13
Extracted from Q-Chem output
N      -1.949065      0.461666     -0.786968
C      -0.953923     -0.095087      0.112291
C      -0.387511     -1.402567     -0.421414
N       0.908062     -1.235422     -0.272059
C       1.304830      0.044601      0.196960
O       2.630872      0.216986      0.315945
C       0.229660      0.791556      0.412510
H      -2.502073     -0.293650     -1.171110
H      -2.571091      1.092644     -0.301197
H      -1.382378     -0.427400      1.080071
H       1.594882     -1.936503     -0.505923
H       2.814042      1.114223      0.602855
H       0.200090      1.808195      0.771531
