13
Extracted from Q-Chem output
N      -2.098905      0.527830     -0.657596
C      -0.875601      0.014447     -0.182546
C      -0.412684     -1.323474     -0.513078
N       0.918717     -1.227359     -0.203165
C       1.316790      0.028122      0.186611
O       2.615893      0.189791      0.486010
C       0.253149      0.858884      0.208729
H      -2.671055     -0.208957     -1.044692
H      -2.614708      1.054958      0.030364
H      -1.044673     -0.817307      0.702974
H       1.540642     -2.016592     -0.196994
H       2.776377      1.103172      0.731154
H       0.236768      1.908864      0.451713
