16
Extracted from Q-Chem output
C      -1.904764     -0.379019     -0.018385
C      -0.453771     -0.174492     -0.409159
C       0.106210      1.236781     -0.236316
C       1.595944      0.966789     -0.082836
O       1.679917     -0.307221      0.565632
C       0.518246     -0.994944      0.408832
N       0.299912     -2.139416      0.879465
H      -2.564531      0.210824     -0.657245
H      -2.070343     -0.079927      1.018583
H      -2.176213     -1.430488     -0.106848
H      -0.311706     -0.484835     -1.451711
H      -0.117600      1.900762     -1.070579
H      -0.294380      1.685606      0.676418
H       2.120534      1.690905      0.538848
H       2.101000      0.901636     -1.051623
H       1.112231     -2.488116      1.382226
