13
Extracted from Q-Chem output
C      -1.203479     -0.453669      0.114552
C      -1.419632      1.073472     -0.018352
C       0.035050      0.910767     -0.306735
N       1.080885      1.116607      0.406913
C       1.674672     -0.168144      0.404939
C       1.116583     -0.977755     -0.617575
N      -0.041595     -0.380029     -0.896562
H      -2.010484     -1.139707     -0.144344
H       0.589487     -0.695942      1.080143
H      -2.044273      1.415835     -0.844902
H      -1.637843      1.602185      0.904949
H       2.635050     -0.313037      0.881913
H       1.303693     -2.021346     -0.818398
