13
Extracted from Q-Chem output
O      -2.729078     -0.009516      1.050329
C      -1.777353     -0.545063      0.326083
C      -0.516513      0.191453      0.651731
N       0.660954     -0.526141      0.221884
C       0.971228     -0.456041     -1.188274
C       1.789124      0.280206     -0.196241
H      -3.558186     -0.444748      0.827360
H      -0.443223      0.409556      1.723697
H      -0.633700      1.167495      0.135492
H       0.309639      0.128083     -1.822080
H       1.340247     -1.370654     -1.635326
H       2.766326     -0.086551      0.093945
H       1.677369      1.361225     -0.162582
