14
Extracted from Q-Chem output
C       2.141781      0.372320     -0.074219
C       0.760879     -0.233326     -0.005744
O      -0.014983      0.523298      0.904365
C      -1.301730      0.087478      1.076212
C      -2.349806      0.934416     -0.033619
C      -2.358051     -0.229208     -0.482175
H       2.766395     -0.196834     -0.764357
H       2.087486      1.403498     -0.423810
H       2.615386      0.364919      0.908085
H       0.806751     -1.278166      0.333346
H       0.281764     -0.219327     -0.992417
H      -1.719166      0.516842      1.979890
H      -1.346295     -1.006829      1.183392
H      -2.404999     -1.200821     -0.930051
