15
Extracted from Q-Chem output
C      -2.458824      0.399880     -0.579857
N      -1.251910     -0.036879      0.076926
C      -0.100691     -0.701172      2.196256
N       0.850095     -0.609732      1.424146
C       1.095853     -0.150668      0.243424
C       2.470953      0.043674     -0.307691
C      -0.123822      0.203906     -0.458637
H      -2.278167      0.928669     -1.524277
H      -3.098525     -0.463169     -0.778025
H      -3.013250      1.061439      0.088647
H      -0.570939     -1.662345      2.405788
H       3.212862     -0.318543      0.402031
H       2.604984     -0.497609     -1.247351
H       2.677746      1.099324     -0.503279
H      -0.030280      0.698915     -1.430626
