14
Extracted from Q-Chem output
C      -1.875729      0.808661      0.370694
C      -1.173038     -0.536318      0.341989
C       0.644026     -0.256296     -1.362416
C       2.007342     -0.125002     -1.132293
N       2.229675     -0.198955      0.204627
N       1.132612     -0.369445      0.881693
N       0.218672     -0.401768     -0.069688
H      -2.921370      0.677958      0.653194
H      -1.404970      1.477700      1.092813
H      -1.835885      1.273291     -0.614864
H      -1.177243     -1.011966      1.322545
H      -1.641443     -1.204329     -0.378721
H       2.827266      0.012644     -1.817876
H       3.095333     -0.153883      0.716388
