14
Extracted from Q-Chem output
C      -2.158221      0.690188      0.125419
C      -1.056985     -0.319745      0.037612
C       0.487399      0.579470     -0.848367
C       1.658945     -0.133681     -1.168998
N       2.223630     -0.481247     -0.009204
N       1.520497     -0.144293      1.047321
N       0.476026      0.520202      0.547778
H      -3.103480      0.156426      0.267728
H      -2.007548      1.355421      0.973386
H      -2.215375      1.282888     -0.784083
H      -0.994157     -0.968598      0.908804
H      -1.096378     -0.932048     -0.858933
H       2.123797     -0.365240     -2.113180
H       3.123847     -0.910944      0.143185
