21
smiles: [C:1]([C:2]([C:3]([H:12])([H:13])[H:14])=[C:4]([H:15])[H:16])([H:8])([H:9])[H:10].[C:5](=[C:6]([H:18])[H:19])([C:7]([H:11])([H:20])[H:21])[H:17]
C       -0.93247100       0.56193000      -1.37858700
C       -1.51321800      -0.61699000      -0.65301700
C       -2.98040300      -0.53315300      -0.34654500
C       -0.77797800      -1.66614200      -0.30647000
C        2.39745800       0.11167100       0.61939700
C        3.05480500       0.42562600      -0.48604400
C        1.44276900       1.01109000       1.33764100
H       -1.43677400       0.71003600      -2.33796900
H       -1.07345500       1.48059800      -0.80189100
H        0.13331500       0.43462300      -1.56728000
H        0.44932300       0.55837200       1.39313900
H       -3.19546100       0.33657600       0.28103900
H       -3.56088700      -0.41150600      -1.26560900
H       -3.33740400      -1.42472700       0.16851600
H       -1.21018900      -2.51329100       0.21373600
H        0.28118100      -1.71549700      -0.53247000
H        2.54719000      -0.87360300       1.05540900
H        3.73300300      -0.27320000      -0.96039000
H        2.93892600       1.39583300      -0.95877500
H        1.35275200       1.97647900       0.83775000
H        1.76908500       1.18586000       2.36618300
