16
smiles: [H:15][H:16].[N:1](=[C:2]1/[C:3]([H:9])([H:10])[C:4]([H:11])([H:12])[C:5]([H:13])([H:14])[C-:6]=[O+:7]1)\[H:8]
N        2.85212200       0.21029800       0.16594900
C        1.65439600       0.03368200      -0.13600600
C        0.99065100      -1.28739300      -0.30508800
C       -0.37039500      -1.24978100       0.37875700
C       -1.16497900      -0.09126000      -0.20289900
C       -0.47120400       1.21673600      -0.44628700
O        0.83992600       1.17689900      -0.37503700
H        3.07494700       1.20343700       0.21179400
H        0.86319700      -1.47352600      -1.37705800
H        1.65572400      -2.05224900       0.09044000
H       -0.23428600      -1.10925200       1.45455500
H       -0.89630700      -2.19651500       0.24744200
H       -1.55150000      -0.33150000      -1.20594400
H       -2.06296000       0.14556700       0.37219900
H       -2.95568000       3.14262600       1.06615600
H       -2.42024600       2.96073800       0.58181200
