15
Extracted from Q-Chem output
O       2.092151      0.412719     -0.269653
C       0.791070     -0.015283     -0.020406
C       0.838473     -1.347001      0.666925
C      -1.607278     -0.078331     -0.690042
C      -1.581835      0.535325      0.497426
C      -0.203311      1.095374      0.286941
C      -0.232120      0.391774     -1.072161
H       2.068404      1.263645     -0.714972
H       1.379735     -1.253701      1.609323
H       1.367507     -2.062487      0.035961
H      -2.268752     -0.811519     -1.134395
H      -0.161242     -1.724439      0.869127
H      -2.214216      0.485859      1.374896
H       0.138993      2.102009      0.487955
H       0.089539      0.799853     -2.021475
