13
Extracted from Q-Chem output
O      -1.415269      0.208219     -0.057355
C      -1.388453     -1.010697      0.577172
C      -0.187078     -1.470815     -0.104193
O       1.512973     -0.089278     -0.151305
C       1.521599      1.089254      0.231225
N       0.462362      1.759120      0.630188
H      -0.470200      1.245367      0.462777
H      -1.259887     -0.964844      1.670533
H      -2.259515     -1.660782      0.375319
H       0.668195     -1.917198      0.380026
H      -0.241026     -1.538025     -1.181265
H       2.482932      1.623283      0.251000
H       0.560469      2.725388      0.881718
