16
Extracted from Q-Chem output
C      -0.559523     -0.846302      1.769845
C      -0.237154      0.287002     -0.489572
C      -0.551534     -1.023669     -1.125930
C       0.004145      1.580410     -1.255449
O       1.198197      1.808635     -0.433589
C       0.880468      0.665861      0.260072
N       1.352441      0.230416      1.376120
H      -0.819943     -0.008483      2.396509
H      -1.332026     -1.226186      1.116971
H       0.096384     -1.583952      2.201548
H       0.056431     -1.821492     -0.691528
H      -1.600978     -1.320954     -0.996578
H      -0.362420     -1.001092     -2.204241
H      -0.693965      2.409379     -1.129687
H       0.276637      1.458596     -2.307254
H       2.345076      0.378616      1.532428
