18
smiles: [C:1](=[C:2]([C:3]([C@@:4]([C:5]([H:16])([H:17])[H:18])([C:6]#[N:7])[H:15])([H:13])[H:14])[H:11])([H:9])[H:10].[H:8][H:12]
C       -2.30748500       0.42288500      -1.24214700
C       -1.15009800       0.95683700      -0.88598100
C        0.14367000       0.20487800      -0.82482400
C        0.76328500       0.16215200       0.58426600
C        2.04065000      -0.67880600       0.62350100
C        1.03415500       1.52161000       1.06621300
N        1.25495400       2.58817500       1.42739400
H       -1.43612600      -2.60454700       0.94899800
H       -3.21732000       1.00962400      -1.26834000
H       -2.38822800      -0.62181900      -1.52564000
H       -1.10812300       2.00794900      -0.60994200
H       -1.74224200      -1.98847300       0.66415300
H       -0.00878100      -0.82575200      -1.15444700
H        0.87106700       0.65852600      -1.50599000
H        0.02681000      -0.26693600       1.27044500
H        1.81515700      -1.70386300       0.32650100
H        2.78814400      -0.27771500      -0.06262500
H        2.47153700      -0.69636600       1.62428200
