14
Extracted from Q-Chem output
O       2.288237      0.396246      0.071457
C       0.957750      0.255520     -0.123392
C       0.151684      1.415369     -0.602860
N      -1.225868      0.920156     -0.495760
C      -1.223391     -0.535934     -0.330035
C       0.200386     -0.819887      0.031896
O       0.675475     -2.057994      0.377315
H       2.637920     -0.447699      0.373169
H       0.075868     -2.468459      1.003954
H       0.308845      2.298366      0.025426
H       0.437697      1.687417     -1.628634
H      -1.790671      1.206917     -1.278102
H      -1.512256     -1.080801     -1.241484
H      -1.922856     -0.840426      0.460842
