14
Extracted from Q-Chem output
O       2.252571      0.100451      0.029679
C       0.941880      0.144796     -0.096281
C       0.172488      1.354993     -0.472491
N      -1.211095      0.887308     -0.347952
C      -1.246143     -0.577461     -0.449864
C       0.126840     -0.955542      0.055407
O       0.628575     -2.209326      0.297923
H       2.473418     -0.843155      0.134841
H       0.289513     -1.171061      1.199056
H       0.372685      2.213211      0.174981
H       0.461402      1.638219     -1.497283
H      -1.822586      1.335440     -1.011526
H      -1.361327     -0.956634     -1.476095
H      -2.050912     -0.994089      0.156520
