14
Extracted from Q-Chem output
O       0.885934      0.009533     -1.517842
C      -0.176414      0.740093     -1.551229
N      -1.213073      0.480866     -0.839798
C      -1.072779     -0.585528      0.639184
C       0.247656     -1.004487      0.900421
C       1.087124     -0.228587      1.742987
C       1.799903      0.465013      2.423920
H      -0.134356      1.601008     -2.223649
H      -1.954432      1.165268     -0.888906
H      -1.780317     -1.342963      0.322601
H      -1.509183      0.160363      1.297396
H       0.491937     -2.050117      0.751523
H       0.816185     -0.546635     -0.638046
H       2.426055      1.061017      3.042827
