12
Extracted from Q-Chem output
O      -2.415683      0.762135     -0.316543
C      -1.638221     -0.379190     -0.069132
C      -0.167280     -0.101779      0.036681
N       0.300097      1.055254     -0.376714
O       1.601011      1.120151     -0.224743
C       2.009032     -0.159158      0.348989
C       0.839520     -0.989498      0.526499
H      -1.941137      1.337746     -0.921264
H      -1.978069     -0.812731      0.872837
H      -1.786911     -1.144987     -0.842898
H       2.728155     -0.608510     -0.343820
H       2.525673      0.050513      1.290750
