14
smiles: [C:1](=[C:2]([H:11])[H:12])([H:9])[H:10].[C@:3]12([C:4]([H:13])([H:14])[O:5]1)[C:6]([H:8])=[N:7]2
C       -2.13908600      -0.89960500      -0.16578800
C       -1.70969100      -0.86104400       1.08385200
C        1.28938000       0.57842800      -0.57177700
C        2.51503700      -0.01371400      -0.11818800
O        1.34651900      -0.79778800      -0.50496600
C        0.26647600       1.54511900      -0.51596200
N        0.80264500       1.41747200      -1.65739000
H       -0.53598300       2.11469800      -0.06530300
H       -3.17131100      -0.68591900      -0.41914100
H       -1.47609000      -1.14585200      -0.98734400
H       -2.37273000      -0.61478000       1.90537400
H       -0.67747000      -1.07470400       1.33723600
H        3.35323900      -0.09581600      -0.80317900
H        2.75673800      -0.05200100       0.93952900
