16
Extracted from Q-Chem output
C      -1.373721     -0.237000      1.104341
C      -1.227691      0.005297     -0.374809
N      -0.754991      1.339351     -0.778087
C       0.311429      0.519432     -1.262758
C       1.426356      0.442786     -0.241495
C       1.940544     -0.936104      0.067181
O       1.304678     -1.945579     -0.076980
H      -0.467070      0.018335      1.649746
H      -2.180244      0.383730      1.497229
H      -1.605180     -1.285033      1.297736
H      -2.090196     -0.295383     -0.966567
H      -1.312734      1.645961     -1.565454
H      -0.449870     -0.732460     -0.871113
H       1.223805      0.939173      0.720561
H       2.247407      1.012626     -0.691295
H       2.963333     -0.979108      0.492045
