13
Extracted from Q-Chem output
O       0.824857     -2.288598      0.376370
C       0.287094     -1.269249      0.038567
C      -1.202961     -1.147392     -0.130772
C      -0.503397      1.820424      0.801830
C       0.601995      1.238591      0.262664
O       1.233580      2.302218      0.496464
C       1.131196     -0.036085     -0.269677
H      -1.663845     -2.128678     -0.047907
H      -1.450570     -0.696315     -1.094390
H      -1.601673     -0.493794      0.651304
H      -1.134475      2.429481      0.156791
H       2.152009     -0.188035      0.080397
H       1.169957      0.076730     -1.360231
