13
Extracted from Q-Chem output
C       1.705713      0.461663     -0.301859
C       0.568894     -0.133459      0.515896
C      -0.727462      0.611233      0.272036
C      -1.892337      0.022661      0.203328
N      -2.990792     -0.504191      0.235548
O       0.430987     -1.521115      0.285196
H       2.631585     -0.077585     -0.099500
H       1.855713      1.515209     -0.057583
H       1.485098      0.392941     -1.370894
H       0.822641     -0.061638      1.577931
H      -0.706443      1.689257      0.163441
H       0.247102     -1.652127     -0.648955
H      -3.350498     -0.831876     -0.656320
