11
Extracted from Q-Chem output
O      -2.725826     -1.090531      0.087811
C      -1.963362     -0.168796      0.031849
C      -0.460001     -0.361103      0.012486
C       0.320336      0.857463     -0.071350
N       1.603166      0.777316     -0.146097
C       2.752870      0.557979     -0.358252
N       0.063913     -1.518404      0.064523
H      -2.329324      0.876363     -0.008266
H      -0.133519      1.838670     -0.084269
H       3.549661      0.455540      0.368609
H      -0.678012     -2.218408      0.102565
