11
Extracted from Q-Chem output
O      -2.533018     -1.279409      0.027117
C      -1.912862     -0.254145      0.023471
C      -0.406455     -0.209716      0.038786
C       0.217184      1.081645     -0.065277
N       1.513153      0.988267     -0.156517
C       2.386660      0.182301     -0.315559
N       0.315266     -1.264804      0.109086
H      -2.425471      0.727623      0.010427
H      -0.289471      2.030935     -0.126478
H       3.152292     -0.200388      0.344544
H      -0.269331     -2.098613      0.102553
