12
Extracted from Q-Chem output
N       1.939890      0.415885     -0.351320
C       0.969694     -0.528885     -0.191714
O       1.163688     -1.615176      0.300751
N      -0.278341     -0.098134     -0.683128
C      -1.467886     -0.639859     -0.076438
C      -1.095491      0.778524      0.143421
H       1.782120      1.168887     -0.995269
H       2.885483      0.122450     -0.186198
H      -2.263539     -0.887343     -0.767918
H      -1.319173     -1.334686      0.741724
H      -1.611786      1.573005     -0.382397
H      -0.704659      1.045332      1.119731
