12
Extracted from Q-Chem output
N       2.321200      0.038892     -0.649723
C       1.116739      0.020149     -0.011056
O       1.052356     -0.099485      1.229158
N       0.032258      0.143466     -0.819192
C      -1.925537     -0.836908     -0.282556
C      -1.128351      0.262477      0.036546
H       2.334997      0.368159     -1.597412
H       3.135201      0.180848     -0.081573
H      -2.983124     -0.782646     -0.531832
H      -1.439904     -1.801720     -0.362720
H      -1.606888      1.241778      0.082921
H      -0.614284      0.066319      1.072208
