18
Extracted from Q-Chem output
C       3.083850      0.555343     -0.235570
N       0.971175      0.196344     -0.937927
C       0.392358     -0.097863      0.188054
O       0.700896     -0.327860      1.338412
C      -1.115370     -0.100244     -0.312393
C      -1.654926     -1.501431     -0.061796
C      -1.834500      0.984095      0.478549
H       3.394608      1.327024     -0.931216
H       3.840636     -0.212343     -0.076069
H       2.708012      0.938791      0.704221
H       2.284014     -0.077776     -0.817490
H      -1.172589      0.127913     -1.378030
H      -1.559053     -1.761883      0.992879
H      -1.118089     -2.245037     -0.652368
H      -2.710343     -1.543430     -0.339471
H      -2.893205      0.992556      0.210321
H      -1.745128      0.794350      1.548816
H      -1.422200      1.971448      0.265998
