16
smiles: [C:1]([C:2]1=[C:3]2[C:4]([H:11])([H:12])[C@:5]12[H:13])([H:8])([H:9])[H:10].[C:6](=[N:7][H:16])([H:14])[H:15]
C        1.12129400       0.78945600       1.72867000
C        0.84372100      -0.29296400       0.76657500
C        1.10366800      -0.60822100      -0.53886200
C        0.18464300      -1.86306100      -0.58768600
C        0.65224100      -1.68367500       0.79002700
C       -1.43481600       1.50548700      -1.19963200
N       -1.94927600       1.02804100      -0.15257500
H        0.18252200       1.16911800       2.13766500
H        1.64091500       1.60999100       1.23608700
H        1.72213400       0.43015500       2.56647300
H        0.52063200      -2.72390700      -1.16094500
H       -0.84647600      -1.59702400      -0.78360400
H        1.28399500      -2.39587800       1.32093500
H       -0.41213200       1.22866500      -1.45813700
H       -1.94335600       2.19115200      -1.88496000
H       -2.90299500       1.36531300      -0.02797900
