13
smiles: [C:1](=[C:2]1[N-:3][O+:4]=[C:5]=[C:7]1[H:13])([H:8])[H:10].[N:6]([H:9])([H:11])[H:12]
C       -2.07137900       0.15864300      -0.09519700
C       -0.82855000       0.27882200      -0.59213100
N       -0.29489300      -0.87939500      -1.15742700
O        0.85517700      -0.56163300      -1.55427400
C        1.26928900       0.86887700      -1.31194400
N        1.30509400      -1.03069300       1.54775400
C        0.14162500       1.32606300      -0.69963400
H       -2.58125300      -0.79523900      -0.15439200
H        1.47954200      -0.92592800       2.53822700
H       -2.58151000       0.99412500       0.36827600
H        1.86045000      -0.33695000       1.06560600
H        1.64846600      -1.94090000       1.27219000
H        0.00549700       2.33491300      -0.34479300
