17
Extracted from Q-Chem output
C       2.096703      0.229191      0.400496
C       0.632432     -0.056375      0.309574
C      -0.017521     -1.239115      0.622342
C      -1.349391     -1.167099      0.183020
C      -1.683415      0.303222      0.098828
C      -0.320277      0.778435     -0.315016
O      -0.133788      2.078225     -0.657838
H       2.298404      1.157395      0.943838
H       2.552277      0.315737     -0.590834
H       2.612883     -0.574803      0.924398
H       0.476184     -2.140821      0.962331
H      -2.093830     -1.928515      0.374943
H      -1.003398     -1.009455     -1.281624
H      -2.477598      0.560780     -0.599246
H      -1.911084      0.696568      1.094678
H      -0.552865     -0.213990     -1.556979
H       0.806101      2.273720     -0.677014
