16
Extracted from Q-Chem output
C      -2.314985     -0.219477      0.183780
C      -1.008426     -0.852063     -0.214859
C       0.395866      0.928841     -0.535051
C       1.626259      0.745096      0.061179
O       2.656504      0.286236     -0.758077
C      -0.154689     -1.374611      0.690306
N       0.843849     -1.422467      1.340881
H      -2.593927      0.546374     -0.542358
H      -2.243552      0.248545      1.165944
H      -3.124567     -0.951644      0.214853
H      -0.969592     -1.315644     -1.196350
H       0.293221      0.761747     -1.598905
H      -0.311006      1.605251     -0.074201
H       1.343190     -0.369188      0.940899
H       1.924726      1.422584      0.862337
H       3.256453     -0.252979     -0.240218
