15
Extracted from Q-Chem output
C      -1.766529      0.953679     -0.570407
C      -0.310226      0.718651     -0.214892
O      -0.168630      1.023158      1.158395
C       0.093955     -0.709564     -0.546645
O       1.533911     -0.853614     -0.727863
C       2.384307     -1.134523      0.209775
O       1.757799     -1.185950      1.395136
H      -2.408111      0.242322     -0.045894
H      -1.931257      0.856881     -1.644610
H      -2.056612      1.957982     -0.263187
H       0.322310      1.386812     -0.816087
H       0.630065      0.608844      1.493937
H      -0.305809     -0.995538     -1.517838
H      -0.262224     -1.403801      0.214663
H       2.428369     -1.413208      2.044439
