15
Extracted from Q-Chem output
C      -1.720444      0.997852     -0.657310
C      -0.335684      0.669498     -0.128776
O      -0.369885      0.881839      1.265117
C       0.044149     -0.760786     -0.498463
O       1.482971     -0.961840     -0.678013
C       2.253830     -1.119618      0.346846
O       1.774199     -1.007872      1.546031
H      -2.454084      0.282973     -0.278190
H      -1.740470      0.982325     -1.748175
H      -2.011582      1.990976     -0.317159
H       0.397273      1.339361     -0.601200
H       0.384643      0.439807      1.669099
H      -0.351044     -1.024829     -1.476688
H      -0.331184     -1.461731      0.248879
H       2.947766     -1.230645      1.377685
