14
Extracted from Q-Chem output
C       1.896034      0.198979     -0.595398
N       1.489295     -0.747899      0.441141
C       0.555319     -0.414907     -0.626071
C      -0.668908      0.417167     -0.325651
C      -1.725594     -0.369223      0.401278
N      -2.285392     -0.076306      1.494034
H       2.674516     -0.154270     -1.260747
H       1.958658      1.252622     -0.342571
H       1.240961     -0.263238      1.296392
H       0.386469     -1.235363     -1.317855
H      -1.090356      0.779797     -1.269935
H      -2.033282     -1.303489     -0.078240
H      -0.393906      1.297218      0.265170
H      -1.929605      0.809037      1.858255
