14
Extracted from Q-Chem output
C       1.692133      0.239637      0.010525
N       1.207106     -1.055826      0.360627
C       0.608623     -0.410996     -0.824528
C      -0.783905     -0.092737     -0.820457
C      -1.609094      0.070952      0.373809
N      -1.009056      0.270494      1.605699
H       2.661653      0.270824     -0.472298
H       1.439845      1.088703      0.634157
H       0.543558     -0.950360      1.145129
H       0.966948     -0.794376     -1.774462
H      -1.250257      0.075594     -1.788154
H      -2.429929     -0.666583      0.381485
H      -2.132440      1.007140      0.014777
H      -0.377525      1.061955      1.516930
