19
smiles: [C:1]([C:2]([O:7][H:19])([H:11])[H:12])([H:8])([H:9])[H:10].[C:3]1([C:4]([H:13])([H:14])[H:15])=[C:6]([H:18])[C:5]1([H:16])[H:17]
C        1.71983600       0.94129400      -0.41451600
C        1.77153200       0.58947100       1.06046800
C       -1.56382300      -0.81298800      -0.60629100
C       -0.76518400      -1.94407200      -1.10783100
C       -1.99979900      -0.10584400       0.64328000
C       -2.32971500       0.20401700      -0.78836600
O        1.02958500       1.48765000       1.86458500
H        2.17485200       1.91812500      -0.60109100
H        0.68681400       0.97398600      -0.76439200
H        2.26484700       0.20364100      -1.00757700
H        2.81367800       0.53522900       1.40170500
H        1.32517300      -0.39183500       1.23095600
H       -0.79757000      -2.00444000      -2.19583800
H        0.27520400      -1.84277300      -0.79075600
H       -1.13835500      -2.88258300      -0.69162700
H       -1.29088500       0.52203800       1.18432100
H       -2.75364100      -0.56275300       1.28567200
H       -2.86960000       0.86047700      -1.44729700
H        1.39477500       2.36742600       1.75411700
