16
Extracted from Q-Chem output
C      -2.150741      0.421636      0.352609
C      -0.670904      0.079169      0.408718
O      -0.412119     -1.242076      0.557671
C       0.053005      0.246595     -0.915761
C       1.429964      0.461820     -0.931909
O       2.032926     -1.497976      0.032150
H      -2.608796      0.146036      1.303047
H      -2.323410      1.487509      0.175100
H      -2.638428     -0.159536     -0.432977
H      -0.181950      0.740043      1.158278
H       1.038998     -1.516637      0.337050
H       0.423762      1.389853     -1.311877
H      -0.394845     -0.236011     -1.779064
H       1.891716      0.972274     -0.097695
H       2.027510      0.254403     -1.809581
H       2.563983     -1.515478      0.829350
