15
Extracted from Q-Chem output
C      -1.474311     -0.435570     -0.663891
C      -0.666197     -0.047904      1.507304
O      -0.561476     -1.200754      0.215022
C       0.599854     -0.626552     -0.597330
C       1.485121      0.174939      0.312520
C       0.160693      0.902501      0.661522
C      -0.350461      0.558908     -0.806860
H      -1.652410     -1.023239     -1.566957
H      -2.382160     -0.179546     -0.128585
H       0.002512     -0.548555      2.224352
H       0.906802     -1.363630     -1.335766
H       2.033757     -0.322370      1.112462
H       2.157576      0.769695     -0.312586
H       0.171888      1.932078      1.011270
H      -0.257917      1.281980     -1.610790
