19
Extracted from Q-Chem output
C       1.731094     -0.270500     -0.991176
C       0.898251      0.477448      0.013681
O       0.513607      1.808465     -0.495424
C      -0.938751      1.504236      0.562149
C      -0.525368      0.035323      0.346853
C      -0.615211     -0.800259      1.617376
C      -1.222044     -0.677701     -0.813271
H       2.692117      0.224514     -1.142905
H       1.925890     -1.279855     -0.621785
H       1.223229     -0.345994     -1.951944
H       1.450153      0.631065      0.943318
H      -1.698024      1.774367     -0.188154
H       0.996141      2.496033     -0.030657
H      -0.144339     -0.282170      2.453564
H      -0.140939     -1.778595      1.489897
H      -1.660024     -0.976024      1.883246
H      -0.814579     -1.677597     -0.994471
H      -1.148534     -0.104192     -1.739547
H      -2.283918     -0.794176     -0.584287
