12
Extracted from Q-Chem output
C       1.404674      0.185988     -0.067277
O       1.162138     -0.687601      0.972172
C      -0.046726     -0.207883      0.423058
C      -0.408755      1.082537      0.741529
O      -1.731208     -0.080728     -1.161323
C      -0.961124     -0.963838     -0.564613
H       1.529075     -0.210007     -1.071558
H       1.951028      1.087009      0.192646
H      -1.246688      1.439661      0.139430
H       0.097813      1.656896      1.507337
H      -1.472369     -1.710129      0.092819
H      -0.282593     -1.575775     -1.207360
