19
Extracted from Q-Chem output
C      -1.955378     -1.180013     -0.007889
C      -0.925762     -0.189796     -0.484725
C      -1.137336      1.235821     -0.069686
C       0.433052     -0.837768      0.995532
O       0.796708     -0.719772     -0.671143
C       1.696738     -0.430161      0.389219
C       2.263416      0.959100      0.488112
H      -2.865692     -1.018469     -0.598144
H      -1.632089     -2.204349     -0.194963
H      -2.172231     -1.060266      1.051575
H      -0.902189     -0.240754     -1.574291
H      -1.232899      1.335349      1.008775
H      -2.060674      1.576123     -0.553888
H      -0.336451      1.879539     -0.428127
H       0.425384     -1.926851      1.136871
H       2.467102     -1.202441      0.350476
H       1.488029      1.697135      0.680734
H       2.796772      1.225570     -0.427211
H       2.974232      0.996731      1.316393
