12
smiles: [C:4]([C:5]([H:7])([H:11])[H:12])(=[O:6])[H:10].[O:1]=[C:2]=[C:3]([H:8])[H:9]
O        2.05651200       0.39152700       0.67926100
C        2.01863200      -0.58150900       0.05765800
C        1.97633600      -1.68311500      -0.64555800
C       -1.15162200       0.14740000      -0.05102500
C       -1.64773500       1.46031000       0.47482300
O       -0.92408800      -0.08207500      -1.20652800
H       -0.94505300       1.84125400       1.22052800
H        2.72072600      -2.44520800      -0.47628600
H        1.19848400      -1.81224500      -1.38164600
H       -0.99568300      -0.64174600       0.71507700
H       -2.60226600       1.31012600       0.98613100
H       -1.76611100       2.18043700      -0.33242800
