8
Extracted from Q-Chem output
C      -1.635419      1.162084     -0.492738
C      -0.546133      0.482969     -0.262159
C       0.516361     -0.175685     -0.037379
C       1.560502     -0.880573      0.178868
N       2.618531     -1.439604      0.412594
H      -2.339620      1.365838      0.304004
H       2.639483     -2.450467      0.322664
H      -1.854660      1.534353     -1.485570
