9
Extracted from Q-Chem output
O      -1.807332      0.336032     -0.107434
C      -0.308796      0.695546     -0.221965
C       0.400147     -0.473593      0.124248
O      -0.169044     -1.471516      0.567441
C       1.857459     -0.433250     -0.030547
N       2.994812     -0.395692     -0.171028
H      -1.710162     -0.600270      0.221299
H      -0.107138      1.332269     -1.068402
H      -1.276775      0.994470      0.644006
