8
smiles: [C-:3]([O:4][H:7])=[C:5]=[C+:6][H:8].[O+:1]#[C-:2]
O       -3.14662200      -1.59456200      -1.25301700
C       -2.75004800      -0.74510500      -0.63389400
C        0.14273000      -0.02262900      -0.01453000
O       -0.60603500       0.86091400       0.59794000
C        1.51808200       0.24208600       0.22732500
C        2.71675200       0.31541100       0.32378300
H       -1.52635700       0.64623600       0.40996200
H        3.77512000       0.39135800       0.41680100
