16
Extracted from Q-Chem output
C       1.797350      0.006645      0.647768
C       0.879217      1.055762      0.070307
C      -0.157915     -0.262918     -1.320587
C      -1.427845     -0.271957     -0.501782
C      -1.121339      0.180342      0.925583
O      -0.256281      1.300685      0.766599
H       2.305809      0.495942      1.483171
H       2.561217     -0.251739     -0.085463
H       1.352785     -0.919016      1.031600
H       0.559533      0.828356     -1.135687
H      -0.328905     -0.050679     -2.377387
H       0.465817     -1.146412     -1.216101
H      -1.878442     -1.267793     -0.489470
H      -2.155622      0.414712     -0.937127
H      -0.653435     -0.612895      1.515157
H      -2.008569      0.528499      1.453277
