14
Extracted from Q-Chem output
C       2.214074      0.362940     -0.500084
C       1.522289     -0.716809     -0.034475
C       0.351054     -1.111564     -0.005120
C      -0.848652     -0.587781     -0.421672
C      -1.834057     -0.007700      0.564351
O      -1.227532      0.670162      1.630949
H       0.815561      0.974144     -1.021505
H       2.563455      1.122477      0.192848
H       2.788005      0.280536     -1.418531
H      -0.070184      0.700249     -1.011728
H      -1.304850     -0.993520     -1.323859
H      -2.474476      0.711346      0.050346
H      -2.484451     -0.819358      0.923020
H      -0.503979      0.128876      1.959871
