15
Extracted from Q-Chem output
C      -2.195548      0.153034      0.143781
C      -0.815168     -0.450615     -0.168063
C       0.158101      0.304410      0.679365
C       2.170844     -0.710771     -0.079644
C       0.522090      1.585212      0.198157
N       0.790345      2.671889     -0.093535
H      -2.424930      0.078812      1.206814
H      -2.245640      1.203018     -0.147563
H      -2.957274     -0.390837     -0.415159
H      -0.815684     -1.502973      0.119909
H      -0.634609     -0.380242     -1.246061
H       1.402890     -0.427807      0.755517
H       2.310443     -1.779254      0.077133
H       1.841534     -0.499626     -1.090363
H       3.057090     -0.133904      0.173987
