14
Extracted from Q-Chem output
C      -0.890746     -0.951829     -0.381717
C      -1.298830      0.424428      0.122012
C      -0.088508      1.307294      0.223292
C       1.135544      0.801418      0.194369
C       1.383246     -0.675764      0.111341
O       0.224389     -1.443976      0.330474
H      -1.688356     -1.682394     -0.244478
H      -0.656622     -0.900129     -1.455550
H      -2.032758      0.863375     -0.560365
H      -1.788020      0.341304      1.097966
H      -0.236686      2.378050      0.316816
H       2.008949      1.443992      0.235121
H       2.100823     -0.980152      0.876852
H       1.827575     -0.925617     -0.866133
