14
Extracted from Q-Chem output
C       1.795767     -0.106104     -0.217825
C       0.455549      0.243052     -0.821645
O       0.202597      1.397317     -1.153977
C      -0.526917     -0.840280     -0.988847
C      -1.609888      0.111229      0.773804
O      -2.037547      1.200035      0.203333
H       1.712087     -0.883340      0.542994
H       2.441146     -0.490930     -1.012048
H       2.259444      0.785609      0.199083
H      -1.188394     -0.687624     -1.838238
H      -0.119168     -1.846501     -0.918456
H      -0.620158      0.225620      1.254830
H      -1.444136     -0.892180     -0.058347
H      -1.301072      1.792293     -0.080603
