13
Extracted from Q-Chem output
C      -1.748239     -0.301802     -0.688438
O      -1.169028     -0.030222      0.590204
C       0.154889      0.134135      0.647381
N       0.732590      0.968581     -0.329698
N       0.733147     -0.117171      1.924125
C       1.555511     -0.686553      0.895473
O       2.309673      0.191388      0.309972
H      -2.659700     -0.863735     -0.493933
H      -1.063776     -0.891751     -1.299093
H      -1.997201      0.622477     -1.209695
H       0.318290      1.917329     -0.254121
H       1.184238      0.704936      2.319326
H       1.646544     -1.754006      0.741325
