14
Extracted from Q-Chem output
C       2.348042     -0.058102      0.184690
N       1.109850      0.663185     -0.067334
C       0.011409      0.240222      0.569520
O      -0.235041     -1.095528      0.603442
C      -0.952156     -0.576650     -0.601791
C      -2.293899     -0.243767     -0.059633
C      -1.244705      0.811375      0.197777
H       3.005773      0.087796     -0.671477
H       2.857036      0.354531      1.059242
H       2.204925     -1.132660      0.337061
H       0.310205      0.016721     -1.070740
H      -2.678346     -0.838385      0.761364
H      -3.032526      0.081619     -0.781894
H      -1.251185      1.775617     -0.287208
