15
Extracted from Q-Chem output
O       2.333853      0.077872     -0.626281
C       1.214181      0.167551      0.044676
C       0.065297      1.189919     -0.167718
C      -0.913861      0.049796      0.119125
O      -2.050384      0.182965      0.885601
C      -0.694056     -1.053048     -0.852409
C       0.215159     -0.928816      0.353706
H       2.307383      0.389170      0.719457
H       1.603574      0.495509      1.383719
H       0.041499      1.970954      0.589500
H       0.047561      1.631760     -1.165741
H      -2.794404      0.368749      0.309107
H      -1.383190     -1.884477     -0.768512
H      -0.319909     -0.860507     -1.851970
H       0.325425     -1.739091      1.059255
