16
Extracted from Q-Chem output
C      -0.927835     -0.833902     -0.949846
C      -0.333330      0.367901     -0.262553
C      -0.198940      1.588621     -1.137013
C       0.944977     -1.048655      1.560432
C       0.529707      0.241778      0.916705
O      -0.831116      0.637129      1.048375
H      -1.897026     -0.571647     -1.379827
H      -0.279080     -1.168852     -1.762291
H      -1.081021     -1.661006     -0.260227
H      -1.176521      1.888162     -1.521724
H       0.451874      1.382737     -1.989789
H       0.216793      2.424556     -0.574547
H       0.213349     -1.838061      1.398153
H       1.908066     -1.377459      1.163553
H       1.055646     -0.908572      2.637499
H       1.229901      1.061446      1.082610
