16
Extracted from Q-Chem output
C      -1.125269     -0.784058     -1.065562
C      -0.262511      0.186050     -0.391063
C       0.338886      1.294834     -1.149938
C       1.083789     -0.694637      1.466391
C      -0.185609      0.129547      1.081245
O      -1.328265     -0.308887      1.560515
H      -2.124513     -0.343202     -1.166661
H      -0.766778     -1.021504     -2.068934
H      -1.272186     -1.648973     -0.413782
H      -0.422874      2.075971     -1.269551
H       0.633810      0.989372     -2.154921
H       1.172822      1.744066     -0.606715
H       0.972572     -1.719848      1.109866
H       2.021556     -0.271694      1.094765
H       1.101568     -0.712255      2.556641
H       0.060596      1.185297      1.374462
