15
smiles: [H:12][H:15].[O:1]([C:2]([C@@:3]1([H:11])[C:4]([H:13])=[C:5]([H:14])[C:6]1=[O:7])([H:9])[H:10])[H:8]
O        2.46867200      -0.78825600      -1.03534200
C        1.40121000      -0.87421200      -0.10875900
C        0.83568900       0.51493600       0.07013500
C        0.04856700       1.10765900      -1.08578000
C       -1.12955400       1.18692900      -0.45307000
C       -0.54427000       0.60461100       0.78423100
O       -0.93188900       0.29182600       1.86885000
H        2.85566400      -1.65761000      -1.14672300
H        1.74473500      -1.25026300       0.86161100
H        0.61538300      -1.54869900      -0.47518900
H        1.59488400       1.18116600       0.48846200
H       -3.86052500      -0.88838300       0.39137900
H        0.36261100       1.36519300      -2.08841200
H       -2.11588800       1.53028100      -0.73396700
H       -3.34861200      -0.70484400       0.89993400
