12
Extracted from Q-Chem output
N      -2.075365      0.196611      0.267732
C      -0.775931      0.077422      0.391565
C       0.174772      0.655485     -0.477399
N       1.308586      1.064235      0.308332
C       2.013897     -0.001579      0.532912
N       1.553221     -1.197784      0.076663
C       0.348904     -0.925873     -0.387540
H      -2.502095      0.880146     -0.345234
H      -2.698233     -0.341169      0.846323
H      -0.041101      1.216181     -1.391181
H       2.936077      0.045817      1.100243
H      -0.235817     -1.667358     -0.919992
