12
Extracted from Q-Chem output
C      -1.662143     -0.362780     -0.206994
C      -0.205640     -0.177240      0.115680
C       0.887703     -1.099009     -0.173488
C       1.978785     -0.172029     -0.142520
N       1.635294      1.100031      0.002788
N       0.334511      1.128067      0.124508
H      -2.301936      0.273332      0.407740
H      -1.843810     -0.130180     -1.256405
H      -1.934940     -1.402543     -0.038406
H       0.067953     -0.661366      1.132333
H       3.026491     -0.402082     -0.271093
H      -0.127197      2.002748      0.306059
