12
Extracted from Q-Chem output
O       1.081585      2.690691      0.178862
C       0.448620      1.245193      0.350092
N       0.974339      0.025540      0.206743
C       0.309170     -0.949431     -0.619431
C      -0.900004     -1.611344      0.007827
O      -1.286577     -1.392895      1.119245
C      -0.278347      2.273599      0.238526
H       1.469502     -0.336902      1.006617
H       1.014192     -1.740115     -0.899565
H      -0.006301     -0.476253     -1.554048
H      -1.417830     -2.341432     -0.649508
H      -1.201853      2.797734      0.068162
