12
Extracted from Q-Chem output
C      -1.358642     -0.264502     -0.613330
C       0.148185     -0.127004     -0.382399
C       0.520406      1.281694      0.019369
O       1.325030      1.962256     -0.553658
C       0.621304     -1.218293      0.548388
O       1.467741     -0.707186      1.404842
H      -1.600224     -1.295131     -0.871105
H      -1.917503     -0.005791      0.288884
H      -1.690741      0.391077     -1.418974
H       0.679678     -0.359952     -1.315607
H      -0.017677      1.675531      0.908426
H       1.789324     -1.413468      1.976173
