12
Extracted from Q-Chem output
C      -1.219216     -0.269910     -0.353258
C       0.282720     -0.006938     -0.359670
C       0.596443      1.472697     -0.224576
O       1.280776      2.093691     -0.984206
C       1.033594     -0.766707      0.703291
O       0.399828     -1.708739      1.323609
H      -1.422305     -1.340303     -0.353419
H      -1.689154      0.152402      0.537151
H      -1.686441      0.172805     -1.232859
H       0.750999     -0.332476     -1.296798
H       0.119136      1.967755      0.647372
H       1.520500     -1.515044      1.584374
