14
smiles: [C:1]1([H:8])([H:9])[N:2]=[C:3]1[C@@:4]12[C:5]([H:12])([H:13])[C@:6]1([H:14])[O:7]2.[H:10][H:11]
C       -1.62074500      -0.78978800      -0.06367100
N       -1.62725100       0.70193000       0.21104600
C       -0.53666000       0.16393900      -0.07952600
C        0.84897200       0.43705100      -0.26137600
C        2.08528800      -0.35883200      -0.57705300
C        1.62752400       0.77963600      -1.41309300
O        1.46491700       1.72758700      -0.36666600
H       -1.76540700      -1.44429600       0.79074700
H       -2.07222100      -1.12051300      -0.99484600
H       -2.29901100       0.46532400       2.78088200
H       -2.31821100       0.09978300       3.42927400
H        1.92792200      -1.35548300      -0.97786100
H        2.94857800      -0.22023300       0.06622500
H        1.34954800       0.95632000      -2.43808800
