13
Extracted from Q-Chem output
C      -2.205528      0.292564      0.013970
C      -0.819780      0.785110      0.329581
C       0.266119      0.403544     -0.271895
C       1.446332      0.073884     -0.834568
C       2.476927     -0.362871      0.264730
N       1.904445     -1.324440     -0.514850
H      -2.192691     -0.423395     -0.806440
H      -2.853217      1.127990     -0.260843
H      -2.647365     -0.186277      0.890907
H       1.808627      0.513881     -1.751235
H       2.200331     -0.355991      1.328122
H      -0.735684      1.521083      1.129823
H       1.181816     -1.919065     -0.092257
