16
Extracted from Q-Chem output
C      -1.816674     -1.225190     -0.293356
C      -0.623665     -0.347098     -0.621114
C      -0.551710      1.056389     -0.007997
C       0.960622      1.187824      0.051243
C       0.682029     -0.774199     -0.044376
N       1.450191     -1.546383      0.419120
O       2.540597      0.032624      1.045753
H      -2.729043     -0.778348     -0.692961
H      -1.931238     -1.335159      0.786006
H      -1.704692     -2.219433     -0.726314
H      -0.483324     -0.279040     -1.704257
H      -1.045901      1.863520     -0.558425
H      -0.966052      1.032755      1.001941
H       1.367530      1.873496      0.778734
H       1.457640      1.259406     -0.909870
H       3.397424      0.187950      1.486130
