13
Extracted from Q-Chem output
C      -1.623555     -1.161434      0.653469
C      -0.413628     -0.552383     -0.011447
O      -0.256293      0.769027      0.473241
C       0.813960      1.446998     -0.029920
C       1.638109      1.024575     -0.959246
N       2.510560      0.615281     -1.721613
H      -2.519209     -0.581747      0.427360
H      -1.772103     -2.181980      0.297287
H      -1.493543     -1.188985      1.735913
H      -0.535664     -0.525712     -1.102977
H       0.492812     -1.130512      0.207143
H       0.940428      2.435807      0.387537
H       2.316437      0.810493     -2.703586
