11
Extracted from Q-Chem output
O      -0.863960      2.094847     -0.077831
C      -0.916996      0.760583     -0.062022
C      -0.020715     -1.579646      0.002386
C       0.121730     -0.084500     -0.012474
C       1.427352      0.494025      0.028940
N       2.453671      1.014988      0.060873
H       0.053011      2.397276     -0.048306
H      -1.936436      0.393965     -0.094569
H      -1.074526     -1.856816     -0.029530
H       0.476475     -2.032041     -0.857366
H       0.417288     -2.008561      0.905255
