14
smiles: [C:1]([C:2]([C:6]#[C:5][H:13])([H:10])[H:14])([H:7])([H:8])[H:9].[O:3]=[C:4]([H:11])[H:12]
C        1.75663400      -0.21638700       0.61942100
C        0.89599300       0.91160900       0.04962800
O       -0.51824500      -1.31576400      -1.95841000
C       -1.56031500      -1.20539400      -1.38231700
C       -1.52332300       0.98866400       1.14968200
C       -0.43649700       0.96384200       0.64699700
H        1.28636500      -1.18580100       0.45114400
H        2.73819500      -0.22266800       0.14346100
H        1.89589700      -0.09262900       1.69392200
H        0.78936200       0.79232400      -1.03184100
H       -2.31850300      -0.45583300      -1.68040400
H       -1.82324000      -1.84669700      -0.51911500
H       -2.48961000       1.01398800       1.59465300
H        1.38790900       1.87525200       0.20627100
