11
Extracted from Q-Chem output
C       0.172443      0.887572      0.280415
C       1.038812     -0.227708      0.796529
C      -0.314043      0.465562     -1.091180
N      -0.596686     -0.912851     -0.624562
C      -1.192384      0.290864      0.003388
C       0.530098     -1.301708      0.216215
H       0.296358      1.930596      0.544881
H       1.870313     -0.140393      1.477346
H      -0.381128      0.864807     -2.090840
H      -2.230275      0.496097      0.213003
H       0.802457     -2.344012      0.269281
