20
Extracted from Q-Chem output
C       2.152038      0.080710     -0.205487
C       0.958779     -0.266056      0.676721
C      -0.437272     -0.027943      0.070597
C      -0.644385     -0.896199     -1.172922
C      -1.480694     -0.412367      1.122821
C      -0.623599      1.445938     -0.298882
H       2.166196      1.138736     -0.474533
H       2.158031     -0.499098     -1.130558
H       3.086224     -0.133137      0.317001
H       1.026099     -1.320092      0.968701
H       1.025664      0.308570      1.607263
H      -0.495291     -1.954720     -0.942864
H      -1.659455     -0.779497     -1.560920
H       0.045233     -0.627003     -1.975325
H      -1.377453     -1.461225      1.413489
H      -2.494865     -0.269616      0.741131
H      -1.374239      0.196102      2.024789
H       0.052049      1.750894     -1.100484
H      -0.438639      2.094579      0.561756
H      -1.644420      1.631422     -0.642293
