20
Extracted from Q-Chem output
C       2.128304     -0.050653     -0.251272
C       0.821619     -0.537248      0.338595
C      -1.147759      0.218184     -0.137983
C      -0.132924     -1.076130     -1.125561
C      -1.718240     -0.225028      1.163920
C      -0.691277      1.632222     -0.194450
H       2.011168      0.932520     -0.712243
H       2.525021     -0.733717     -1.004999
H       2.873328      0.050387      0.540834
H       0.895808     -1.530496      0.779712
H       0.550356      0.134625      1.145904
H       0.759114     -1.716169     -1.281837
H      -0.960852     -1.776510     -1.077444
H      -0.190632     -0.469226     -2.024604
H      -1.848488     -1.308031      1.220836
H      -2.720696      0.214952      1.202010
H      -1.184031      0.106766      2.075318
H      -0.169305      1.877976     -1.121447
H      -0.080787      1.990777      0.657808
H      -1.615010      2.221179     -0.193911
