14
smiles: [H:11][H:12].[O:1]([C@@:2]1([H:8])[C:3]([H:9])([H:10])[C-:4]=[O+:5][C:6]1([H:13])[H:14])[H:7]
O        0.75659000      -0.96896700      -1.73451700
C        0.63736100       0.21160100      -0.96927500
C       -0.65062900       0.25875700      -0.14119300
C       -0.29824800      -0.24434700       1.23839000
O        0.99385700      -0.19519200       1.32559400
C        1.67870300       0.31755600       0.12713200
H        0.55987000      -1.72916300      -1.18170600
H        0.72192200       1.03235300      -1.67984900
H       -1.48158400      -0.28682100      -0.58863700
H       -1.00120800       1.28687400       0.01652700
H       -3.05438100      -0.33261600       1.88349100
H       -3.77914600      -0.21809000       1.75665600
H        1.97168900       1.34465900       0.34709400
H        2.55959300      -0.29810700      -0.04151300
