14
Extracted from Q-Chem output
O       1.113509     -0.641638     -1.740298
C       0.498893      0.248257     -0.830641
C      -0.964624     -0.120538     -0.516098
C      -0.971520     -0.586954      0.929402
O       0.290492     -0.640907      1.344766
C       1.136510      0.217445      0.552867
H       1.020863     -1.538616     -1.409404
H       0.591445      1.232993     -1.286390
H      -1.261607     -0.965647     -1.142990
H      -1.672651      0.681275     -0.710618
H      -1.711933      0.117090      1.730302
H      -1.458200      0.969631      1.599412
H       1.121010      1.202184      1.032821
H       2.148719     -0.183787      0.551475
