16
Extracted from Q-Chem output
C      -1.333235     -1.298674     -0.565436
C      -0.464367     -0.092114     -0.558742
O      -1.283593      0.957365      1.091848
C       0.867238     -0.143645     -0.073892
C       1.870509      0.808327     -0.707288
C       0.835934      0.269652      1.540806
N      -0.187688      0.761631      2.029842
H      -1.054746     -1.928071     -1.418437
H      -2.389921     -1.055155     -0.661421
H      -1.178137     -1.891502      0.337398
H      -0.780530      0.763781     -1.142983
H      -2.101398      0.868365      1.602471
H       1.243215     -1.165103     -0.017828
H       2.797897      0.796649     -0.135491
H       1.487621      1.830540     -0.701147
H       2.086000      0.524763     -1.739276
