16
smiles: [C:1]([C:2]([C:3]([O:4][H:13])=[C:5]([H:14])[H:15])([H:10])[H:11])([H:7])([H:8])[H:9].[O:6]([H:12])[H:16]
C       -2.36198200      -0.31180800       0.17193400
C       -1.38866500       0.84662500      -0.03904200
C        0.03799800       0.39922000      -0.10804000
O        0.24794600      -0.40803700      -1.18394900
C        0.98705500       0.73003600       0.76247700
O        2.93954600      -1.27717200      -1.38446400
H       -3.39106300       0.04999800       0.19397800
H       -2.27541900      -1.04409500      -0.63101800
H       -2.16062500      -0.82016900       1.11690600
H       -1.62828500       1.36057500      -0.97490900
H       -1.48622500       1.57680200       0.76515800
H        3.30291800      -1.81816200      -0.68236200
H        1.16428200      -0.69465400      -1.19315900
H        0.76053500       1.37657000       1.59720400
H        2.00528700       0.37061400       0.66421700
H        3.58955000      -0.59090500      -1.53985300
