13
Extracted from Q-Chem output
O      -0.256992     -0.578507      1.786055
C       0.343962     -0.887921      0.552091
C      -0.670239     -0.820557     -0.605605
C      -1.270287      0.503714     -0.730061
C      -1.754826      1.597170     -0.787001
C       1.520954     -0.048797      0.280195
C       2.469726      0.644906      0.055103
H      -0.554615      0.336337      1.751077
H       0.676200     -1.924553      0.642150
H      -1.453359     -1.555657     -0.408408
H      -0.176573     -1.096202     -1.540065
H      -2.187994      2.567110     -0.855071
H       3.314042      1.262957     -0.140459
