18
smiles: [C:1]([H:7])([H:8])([H:9])[H:17].[C:4]([C:5]([H:13])([H:14])[H:15])(=[C:6]([H:16])[H:18])[H:12].[O:2]=[C:3]([H:10])[H:11]
C        1.81862500      -1.56811700       1.18387300
O        1.61209900       1.57234500      -0.65581100
C        1.16308500       0.94796900      -1.57155100
C       -1.83152200       0.57083500      -0.38012100
C       -1.34728600       1.17122700       0.90109600
C       -1.58035400      -0.66500600      -0.78307100
H        1.02810600      -1.70413700       1.92033500
H        1.90371700      -0.51226000       0.93174800
H        2.76271000      -1.92038300       1.59686700
H        0.57727500       1.42968300      -2.37794400
H        1.30928500      -0.14564200      -1.66292300
H       -2.43599100       1.21579600      -1.01392700
H       -0.73471800       2.05627500       0.71045000
H       -2.18707000       1.49441000       1.52183800
H       -0.75172300       0.46001900       1.47503600
H       -1.96167900      -1.04400100      -1.72346200
H        1.58055000      -2.13826600       0.28715600
H       -0.98233500      -1.34464000      -0.18434400
