15
Extracted from Q-Chem output
C       1.698604      0.100695      0.488772
C       0.855599     -0.511845     -0.607290
O       0.148210     -1.698837     -0.116073
C      -1.027508     -0.969731     -0.135715
N      -2.121254     -1.136920      0.485566
C      -0.505481      0.102069     -0.930284
N      -0.930946      1.405986     -0.351700
H       1.102191      0.291955      1.386714
H       2.152418      1.037011      0.149563
H       2.506512     -0.573711      0.774034
H       1.471627     -0.784648     -1.467704
H      -2.120312     -1.975130      1.056007
H      -1.052635      2.132406     -1.049696
H      -1.843941      1.203466      0.076612
H      -0.320055      1.766099      0.389910
