15
Extracted from Q-Chem output
C       1.689870      0.060050      0.565227
C       0.853131     -0.444899     -0.582930
O       0.125662     -1.662917     -0.220827
C      -1.058393     -0.951995     -0.189681
N      -2.165312     -1.236222      0.338734
C      -0.494056      0.223123     -0.832858
N      -0.949886      1.535694     -0.165065
H       1.076390      0.219979      1.455057
H       2.175812      1.001847      0.297499
H       2.468594     -0.661338      0.814074
H       1.454999     -0.631641     -1.474027
H      -2.146835     -2.153539      0.774775
H      -1.343151      1.226211     -1.208211
H      -1.416941      1.434468      0.732067
H      -0.285296      2.290674     -0.230592
