15
Extracted from Q-Chem output
C      -0.828901      1.309083      0.481820
C      -0.516942     -0.171823      0.655385
C      -0.596165     -0.971730     -0.662287
O       0.463019     -0.699375     -1.602815
C       0.884257     -0.491231      1.160402
C       1.806082     -0.288572      0.234494
C       1.541182     -0.091861     -1.060169
H      -1.818553      1.449605      0.041613
H      -0.808021      1.821703      1.444347
H      -0.096892      1.790935     -0.168669
H      -1.259512     -0.613860      1.325890
H      -1.512147     -0.738538     -1.207802
H      -0.576716     -2.042985     -0.444353
H       1.031057     -1.055930      2.075015
H       2.091481      0.513857     -1.769581
