7
Extracted from Q-Chem output
C      -1.011687     -0.280540      0.007170
C       1.012885      0.274766      0.053826
O      -0.001185     -0.065925      0.852379
H      -1.640543     -1.137438      0.204468
H      -1.217679      0.463313     -0.741907
H       1.220108     -0.344820     -0.800644
H       1.637740      1.094383      0.379706
