7
Extracted from Q-Chem output
O      -2.876752     -1.867757      1.094538
C      -1.931772     -1.258273      0.803413
C      -0.968880     -0.486753      0.445993
C       0.188962     -0.001370      0.191024
C       1.278919      0.598507     -0.105734
N       2.417377      1.008069     -0.329505
H       2.452015      1.954134     -0.709676
