11
Extracted from Q-Chem output
O       1.208762     -1.149244      0.478521
C       0.289809     -0.290573      1.108478
C      -0.312208      0.706673      0.144399
O      -1.091573     -0.020150     -0.836244
C      -0.764415     -0.097832     -2.080274
H       0.726905     -1.777381     -0.064164
H       0.840706      0.257909      1.875043
H      -0.998115      1.383785      0.655435
H       0.463453      1.268101     -0.383861
H      -0.510631     -0.849705      1.606192
H       0.153863      0.536092     -2.217671
