11
Extracted from Q-Chem output
O       1.428741     -0.841264      0.748869
C       0.156417     -0.366817      0.693026
C      -0.120125      0.997350      0.053697
O      -1.351652      0.716325     -0.554583
C      -1.166668     -0.615470     -0.935916
H       1.883216     -0.639831     -0.074989
H      -0.311147     -0.493520      1.672332
H      -0.193187      1.837482      0.750655
H       0.654381      1.213277     -0.700240
H      -0.708352     -1.171444      0.117136
H      -0.268150     -0.652476     -1.596451
