12
Extracted from Q-Chem output
N       2.083615      0.649071      0.194169
C       0.839309      0.403870     -0.126672
C       0.611841     -1.018198      0.070410
N      -0.828895     -0.985197      0.263730
C      -1.229073      0.252495     -0.034011
O      -2.518190      0.551235      0.010278
N      -0.287945      1.138379     -0.315301
H       1.934820     -0.618724      0.602552
H       2.559701      1.494797     -0.091749
H       0.884823     -1.623063     -0.796799
H      -1.456109     -1.751471      0.421426
H      -2.599518      1.489997     -0.192211
