11
Extracted from Q-Chem output
C      -1.175852     -0.520024      0.643616
C      -0.295791      0.612368      0.245780
N      -0.686713      1.690987     -0.244039
O       1.070515      0.410393      0.596831
C       1.916103     -0.278077     -0.136767
O       1.289803     -0.693486     -1.231019
H      -1.056396     -0.718900      1.709922
H      -0.895555     -1.422859      0.100279
H      -2.210067     -0.265642      0.427744
H       0.085725      2.330859     -0.412613
H       1.931259     -1.187612     -1.748435
