11
Extracted from Q-Chem output
C      -1.239189     -0.500996      0.569171
C      -0.301581      0.611587      0.261527
N      -0.628091      1.757231     -0.102360
O       1.069296      0.288440      0.533399
C       1.751698     -0.406010     -0.345403
O       1.194637     -0.748216     -1.448769
H      -1.076138     -0.851309      1.589592
H      -1.059475     -1.336102     -0.108929
H      -2.261289     -0.149729      0.455730
H       0.179700      2.358874     -0.241876
H       2.343464     -1.065765     -1.210784
