15
Extracted from Q-Chem output
C       2.187947      0.040031     -0.328299
C       0.695811      0.181356     -0.605798
C      -0.165761     -0.214828      0.578996
C      -1.893449      0.470422      0.222958
O      -1.890550      1.623973     -0.028171
N      -2.606919     -0.607751      0.350515
H       2.779814      0.352481     -1.190226
H       2.454745     -0.994560     -0.098641
H       2.487568      0.656760      0.522337
H       0.463640      1.216022     -0.867292
H       0.420341     -0.427081     -1.472588
H       0.082810     -1.253858      0.883535
H       0.011337      0.377174      1.476755
H      -1.288064     -0.904815      0.474240
H      -3.605168     -0.534587      0.173799
