12
Extracted from Q-Chem output
C       2.680375     -0.690394      0.248207
C       1.569377     -0.650751     -0.194318
C       0.202745     -0.585947     -0.700968
C      -0.741162      0.065664      0.292876
C      -1.915708      1.504834     -0.023762
O      -2.052010      0.137673     -0.241361
H       3.672338     -0.728168      0.632843
H      -0.169661     -1.591241     -0.911673
H       0.165414     -0.023410     -1.635942
H      -0.741417     -0.363788      1.294103
H      -0.380592      1.156269      0.380061
H      -2.179810      1.650309      1.058017
