15
Extracted from Q-Chem output
C      -2.259721     -0.576825      0.062168
N      -1.231912      0.451446      0.376628
C      -0.122742      0.502100     -0.647675
C       1.265273      0.296245     -0.191121
C       2.212919     -0.718320      0.299993
C       0.921389      1.516100     -0.433116
N      -1.268855      1.168238      1.339815
H      -2.760418     -0.322038     -0.873251
H      -2.967200     -0.581639      0.885618
H      -1.778967     -1.550817     -0.046353
H      -0.479875      0.185627     -1.627813
H       3.173868     -0.270844      0.551017
H       2.367124     -1.496579     -0.449779
H       1.807290     -1.196377      1.194051
H       1.135144      2.568879     -0.448740
