15
Extracted from Q-Chem output
C      -2.393710     -0.519789     -0.187565
N      -1.268402      0.431465     -0.102870
C      -0.054507      0.026667     -0.643243
C       1.175210      0.309063      0.149814
C       2.309214     -0.610144      0.427753
C       0.803765      1.528999      0.244690
N      -1.346079      1.487486      0.530184
H      -3.320444      0.032748     -0.068668
H      -2.290658     -1.266526      0.599225
H      -2.376041     -1.015502     -1.158303
H      -0.030156     -0.439533     -1.620744
H       2.692023     -1.029805     -0.504704
H       1.969903     -1.443506      1.047629
H       3.122759     -0.092362      0.934543
H       1.020441      2.575936      0.343701
