13
Extracted from Q-Chem output
C      -0.874030      1.395221      0.409944
C      -0.452212      0.049648     -0.120867
N      -1.144206     -1.042977      0.304320
O      -0.985704     -1.889601     -0.642306
C       1.103725     -0.143005     -0.006001
O       1.668134     -1.258101     -0.611242
H      -1.939593      1.399820      0.634739
H      -0.330014      1.682607      1.315482
H      -0.688300      2.160751     -0.345265
H      -0.482573     -0.868161     -1.244928
H       1.345648     -0.105727      1.064608
H       1.534853      0.735765     -0.484192
H       1.363270     -2.058353     -0.176434
