11
Extracted from Q-Chem output
N      -2.322045     -0.336879     -0.343909
C      -1.054258     -0.645967     -0.141448
O      -0.435774      0.449851      0.314311
C       0.948348      0.274151      0.560817
C       1.750002      0.128033     -0.715072
O       2.943686      0.033343     -0.714198
H      -2.942820     -1.047822     -0.681632
H      -2.699333      0.586167     -0.162682
H       1.121751     -0.603971      1.185500
H       1.293531      1.160562      1.094656
H       1.157101      0.116253     -1.651469
