14
Extracted from Q-Chem output
C      -2.253244     -0.640243      0.780627
C      -0.148353     -0.018351     -0.384709
C      -1.369421     -0.458603     -0.420002
O       2.043650     -1.823035     -0.169548
C       2.176997     -0.633866     -0.083492
C       1.098552      0.375690     -0.279770
N       1.531366      1.719447     -0.228275
H      -2.530342     -1.691381      0.887032
H      -3.177189     -0.068154      0.670422
H      -1.750881     -0.320784      1.692365
H      -1.786182     -0.731634     -1.387838
H       3.162705     -0.183150      0.159858
H       0.781130      2.375059     -0.381359
H       2.290705      1.913344     -0.865746
