14
Extracted from Q-Chem output
C      -1.514543     -0.377504      0.737153
C      -0.608006      0.459247     -0.670334
C      -0.744776     -0.929334     -0.770016
O       0.411666     -1.637072     -0.602363
C       1.342393     -0.681798     -0.257741
C       0.795771      0.548017     -0.236266
N       1.358989      1.758259      0.148750
H      -1.118868     -1.200772      1.336950
H      -2.576339     -0.477728      0.542708
H      -1.336664      0.546243      1.278929
H      -1.527146     -1.497883     -1.252875
H       2.332230     -1.056935     -0.050411
H       0.894132      2.541066     -0.282456
H       2.360654      1.820533      0.067536
