13
Extracted from Q-Chem output
C      -0.877368     -0.911697     -0.271876
N      -0.861425      0.479171     -0.379322
C      -0.133734      1.263369      0.600747
C       0.471506      1.012899     -0.741256
C       1.527193     -0.027637     -0.810019
C       1.072498     -1.213872     -0.391172
H       0.402851     -1.157991      0.536961
H      -1.172242     -1.433612     -1.175856
H      -1.405118     -1.287038      0.606567
H      -0.590485      2.216377      0.840583
H       0.334527      0.757421      1.441378
H       0.465609      1.800164     -1.483873
H       1.465189     -2.217561     -0.469933
