11
smiles: [C:1]([H:7])([H:8])([H:9])[H:10].[N:2](=[C:3]=[O:4])[C:5](=[O:6])[H:11]
C       -0.80223100       2.13292600      -0.38524600
N        0.16560500      -1.32566700       0.39139500
C       -0.60510600      -2.22145000       0.65610200
O       -1.42010300      -2.99628800       0.91934700
C        1.52992700      -1.30387500       0.07072500
O        2.11813000      -0.29928200      -0.16711300
H       -1.30540100       2.05911500       0.57764600
H       -0.67206200       3.18201300      -0.64664400
H       -1.40315400       1.63996500      -1.14790000
H        0.17223000       1.65073400      -0.32414500
H        2.00377900      -2.29815000       0.06017700
