15
Extracted from Q-Chem output
C      -1.393248     -1.130632     -0.303788
C      -0.505174     -0.535145      0.781335
C       0.565158      0.386643      0.243929
C       0.304365      1.821272      0.094322
O       1.090140      1.320790      1.164635
C       2.869623     -0.314807     -0.676359
C       1.581526     -0.247109     -0.642894
H      -2.186330     -1.733874      0.138762
H      -0.831096     -1.780911     -0.977388
H      -1.863737     -0.348536     -0.903880
H      -1.104654      0.046390      1.485078
H      -0.020658     -1.329135      1.355661
H       0.848997      2.387382     -0.654558
H      -0.669835      2.210785      0.378053
H       1.265282     -0.841986     -1.513880
