15
Extracted from Q-Chem output
C      -1.299608     -1.211107     -0.175443
C      -0.465917     -0.520477      0.893086
C       0.670092      0.302497      0.324529
C       0.399601      1.728652     -0.019269
O       1.134391      1.366494      1.115024
C       1.982972     -0.734455     -0.051542
C       1.553754     -0.219883     -1.110199
H      -2.133654     -1.745987      0.280000
H      -0.703638     -1.931719     -0.736648
H      -1.715013     -0.489597     -0.884074
H      -1.089516      0.156584      1.483255
H      -0.041708     -1.252668      1.581291
H       0.959298      2.232759     -0.800622
H      -0.605070      2.104418      0.161282
H       1.304378      0.125618     -2.091639
