15
Extracted from Q-Chem output
O      -2.035287      0.546121     -0.691363
C      -1.548652     -0.102611      0.452971
C      -0.171094      0.382797      0.885528
N       0.859482     -0.005802     -0.095462
C       0.977573      0.803600     -1.154210
C       1.472296     -1.155418      0.119178
H      -1.343472      0.506284     -1.365406
H      -1.513598     -1.191229      0.313074
H      -2.251476      0.110324      1.261235
H      -0.161895      1.468668      0.970714
H       0.100556     -0.049845      1.847244
H       0.570680      1.797127     -1.075673
H       1.706383      0.551011     -1.908289
H       1.205856     -1.734372      0.986193
H       2.189060     -1.507796     -0.605090
