17
Extracted from Q-Chem output
C      -2.105440     -0.540146     -0.307847
C      -0.671562     -0.071485     -0.402930
O      -0.554025      1.131780      0.336818
C       0.697010      1.752972      0.110082
C       1.929970      0.968946      0.119675
C       1.704321     -0.451445      0.368086
C       0.328091     -1.095699      0.120409
H      -2.783769      0.207875     -0.718678
H      -2.373256     -0.711130      0.736602
H      -2.238888     -1.474116     -0.857189
H      -0.430077      0.148415     -1.456850
H       0.724943      2.224319     -0.894051
H       0.783090      2.587500      0.811828
H       0.427605     -1.909230     -0.601841
H       1.876880     -0.316457      1.462842
H       2.542898     -1.077040      0.059253
H      -0.060806     -1.534744      1.042728
