13
Extracted from Q-Chem output
C       1.831655      0.478428     -0.020832
C       0.404594      0.039639      0.079100
C       0.115913     -1.424653      0.078461
N      -0.992966     -1.972864      0.323191
C      -1.764195      1.009445      0.589279
O      -2.639501      1.353289     -0.346747
N      -0.539703      0.870952      0.228363
H       2.403924      0.096940      0.828898
H       1.900835      1.563595     -0.033258
H       2.292549      0.078039     -0.926939
H       0.976749     -2.066921     -0.119309
H      -1.725416     -1.279883      0.507710
H      -2.235070      1.393437     -1.228609
