15
Extracted from Q-Chem output
C      -1.114966     -1.381188     -0.244989
C      -0.437148     -0.033403     -0.144489
C      -0.827121      1.186197     -0.890001
N      -1.010426      1.090182      0.533305
C       0.950660      0.026798      0.354358
O       1.143713      0.154623      1.642549
N       2.027504      0.036423     -0.395319
H      -2.170865     -1.208676     -0.456050
H      -0.698392     -2.016946     -1.032410
H      -1.051848     -1.920449      0.704552
H      -0.045868      1.828215     -1.316113
H      -1.708340      1.123859     -1.535830
H       0.280382      0.558064      1.916153
H       1.937065     -0.120070     -1.383220
H       2.927734      0.271388     -0.008283
