13
Extracted from Q-Chem output
O      -1.097248     -0.637156      1.451085
C      -1.049430     -0.181195      0.111171
C      -0.286887      1.135567      0.001629
N       0.810369      0.517002     -0.753256
C       1.252373     -0.736172     -0.158546
C      -0.049582     -0.885183     -0.860023
H      -1.465055     -1.523326      1.448394
H      -2.060341     -0.132869     -0.299341
H       0.035316      1.585050      0.944098
H      -0.792726      1.874856     -0.615498
H       1.356855     -0.694712      0.924870
H       2.117123     -1.149050     -0.667599
H       1.271477      0.943818     -1.538254
