14
Extracted from Q-Chem output
O      -0.440956     -3.025798      0.654664
C      -1.273920     -2.324267     -0.030869
C       0.027357      2.017496     -0.526313
O       1.157948      1.549971      0.201008
C       1.266412      0.280305      0.605875
N       0.533588     -0.730843      0.472994
C      -0.740542     -0.899934     -0.190684
H       0.339416     -2.450454      0.903047
H      -0.883213      1.940734      0.067432
H      -0.088993      1.481221     -1.467313
H       0.230270      3.065169     -0.734323
H       2.203422      0.179440      1.150968
H      -1.529057     -0.246832      0.193527
H      -0.687838     -0.733173     -1.271096
