14
Extracted from Q-Chem output
O      -0.965960     -0.864601      1.433207
C      -1.273248     -0.482221      0.191629
C      -0.234511      1.485486      0.066372
O       0.970000      1.068941      0.627205
C       1.554795     -0.063888      0.164568
N       1.079778     -0.989942     -0.542814
C      -0.346675     -1.008515     -0.872991
H      -0.081445     -1.258741      1.488227
H      -1.397001      0.735074      0.130005
H      -0.135589      1.719958     -0.993626
H      -0.592860      2.328955      0.652051
H       2.583660     -0.105272      0.513365
H      -0.533056     -0.494624     -1.816282
H      -0.619682     -2.055479     -1.034336
