13
Extracted from Q-Chem output
N       2.228796     -0.115147      0.448549
C       0.884219     -0.082328      0.157877
O       0.384494      1.179288      0.099375
C      -0.013919     -1.049194     -0.041913
C      -1.345377     -0.406164     -0.331906
C      -1.047537      1.054130      0.040439
H       2.703537     -0.948128      0.146775
H       2.715363      0.731051      0.202660
H       0.192276     -2.107104     -0.058797
H      -1.637770     -0.508637     -1.382994
H      -2.165863     -0.801250      0.271155
H      -1.441127      1.303351      1.029536
H      -1.413139      1.782942     -0.681724
