14
smiles: [C:3]1([H:9])=[C:4]([H:10])[N:7]1[C:6]([C:5]([H:8])([H:11])[H:12])([H:13])[H:14].[O+:1]#[C-:2]
O        0.77324500       3.59515400       0.45093400
C       -0.01811300       3.37122500       1.21627300
C        0.79072700       0.63780900      -0.94251900
C       -0.33099900       0.40725300      -1.49294500
C        0.01589000      -1.90544500       0.24778800
C       -0.53050200      -0.59726100       0.79887400
N       -0.37831800       0.62206600      -0.02108500
H        1.09226900      -1.85549100       0.06769300
H        1.83957800       0.86703700      -0.91565500
H       -1.01109500       0.27552200      -2.31340400
H       -0.16725000      -2.70663800       0.96574100
H       -0.46028700      -2.18473600      -0.69488700
H       -0.05899400      -0.37488000       1.76060800
H       -1.60206900      -0.69724600       0.99513000
