14
Extracted from Q-Chem output
O       2.017493      1.844629      0.850504
C       1.150398      1.120147      0.558864
C       0.210603      1.199422     -0.730122
C       0.119822     -0.017532     -1.370198
C       0.114186     -1.272188      0.538548
C      -1.170387     -0.455541      0.513422
N      -1.049700      0.405165     -0.674368
H       0.940451     -0.262826      0.696746
H       0.193719      2.191204     -1.158960
H       0.322936     -0.472840     -2.325024
H       0.386168     -1.659929      1.526144
H       0.135077     -2.102459     -0.158942
H      -1.302720      0.146684      1.414355
H      -2.062360     -1.076752      0.402994
