16
smiles: [C:1]1([H:7])([H:8])[C:2]([H:9])([H:10])[C:3]1([H:11])[H:12].[C:4]1[C:5]([H:13])([H:14])[C:6]1([H:15])[H:16]
C        1.51830500       0.02091700      -0.53154800
C        2.58762500      -0.08246700       0.51352600
C        1.21456000       0.38561000       0.88990100
C       -1.61081000      -1.12302700      -0.06721300
C       -2.40191900       0.07218500       0.32815800
C       -2.08789000      -0.16494800      -1.09928500
H        1.09850600      -0.89637700      -0.92284900
H        1.59367000       0.82094700      -1.25621800
H        2.89358100      -1.07009100       0.83262900
H        3.38677700       0.64683100       0.49617400
H        1.08108500       1.43261100       1.12819700
H        0.58917800      -0.28458800       1.46483500
H       -3.39657600      -0.12832500       0.71351600
H       -1.86369600       0.82624300       0.89357300
H       -2.84852200      -0.53856600      -1.77730500
H       -1.31372600       0.41123400      -1.59617200
