16
Extracted from Q-Chem output
C       2.188273     -0.154925     -0.469663
C       1.497270      0.301423      0.779340
C       0.761665      0.303550     -0.507939
C      -1.048761     -0.897373     -0.477876
C      -1.672694     -0.415395      0.789044
C      -2.089004      0.177912     -0.524424
H       2.376134     -1.216723     -0.572662
H       2.933569      0.481376     -0.929363
H       1.231992     -0.459092      1.504028
H       1.770369      1.257537      1.206938
H       0.482435      1.215392     -1.014773
H       0.133632     -0.713478     -0.846108
H      -2.302521     -1.142555      1.290178
H      -1.132094      0.234595      1.464682
H      -3.023799     -0.110386     -0.992725
H      -1.821519      1.213967     -0.690330
