12
smiles: [C:1]([C:2](=[O:3])[H:11])([H:7])([H:8])[H:9].[C:4](=[O:5])=[C:6]([H:10])[H:12]
C       -2.15712600       0.32553600      -0.46412500
C       -0.71563100       0.63501500      -0.73415100
O       -0.10238600       1.52798500      -0.21817700
C        1.50664100      -1.02750800       0.99967200
O        0.57592400      -1.66172200       1.25689500
C        2.55989300      -0.30967800       0.70793100
H       -2.57192400       1.02345300       0.26057200
H       -2.72049700       0.37334700      -1.39968600
H       -2.24473700      -0.69905400      -0.09316800
H        3.53772800      -0.76152900       0.76337700
H       -0.21612600      -0.03220900      -1.46858900
H        2.43153400       0.72079700       0.41616000
