15
Extracted from Q-Chem output
C      -1.883913     -0.318411     -0.335532
C      -0.585202      0.094489      0.308490
C       0.051205      1.299611     -0.122985
N       1.301497      1.595782      0.026999
C       0.922816     -1.021750      0.535330
N       2.000515     -1.040548     -0.204567
C      -0.028796     -0.773134      1.351011
H      -1.744574     -1.126596     -1.062094
H      -2.601099     -0.677103      0.409002
H      -2.343847      0.517737     -0.867370
H      -0.612280      1.963909     -0.693006
H       1.489678      2.520737     -0.342411
H       2.181385     -1.814275     -0.820299
H       2.275097     -0.084323     -0.479928
H      -0.413902     -1.138743      2.295026
