19
smiles: [C-:2]([O+:3]=[C:4]1[C:5]([H:14])([H:15])[C@:6]1([C:7]([H:17])([H:18])[H:19])[H:16])([H:11])[H:12].[C:1]([H:8])([H:9])([H:10])[H:13]
C        2.75288300      -1.25544600       0.24127700
C        0.92377800       1.56178200      -0.27643000
O        0.21266700       1.21673800       0.73985400
C       -0.42452100       0.08141400       0.91452600
C       -1.80220800      -0.03435600       1.38616500
C       -1.37686800      -0.54887100      -0.00932100
C       -1.88980800       0.18359600      -1.22504300
H        3.11764400      -2.17550100       0.69541100
H        3.47099700      -0.45582400       0.41650000
H        2.62906300      -1.40440400      -0.83036600
H        1.03914000       0.87787300      -1.10623500
H        1.47931800       2.47772200      -0.16152100
H        1.79478300      -0.98608100       0.68314400
H       -2.44028300       0.84599200       1.38605500
H       -2.04080900      -0.76208000       2.15402200
H       -1.31982800      -1.62864800      -0.11865500
H       -1.26207400      -0.00135400      -2.10067600
H       -2.90321400      -0.14239300      -1.46824400
H       -1.91822800       1.26263000      -1.06307700
