7
Extracted from Q-Chem output
O       0.685506      1.079988     -0.053299
C       1.020415     -0.199580      0.020715
N       0.017492     -1.006524      0.055808
C      -1.032605     -0.127629     -0.002783
N      -0.695354      1.120736     -0.068623
H       2.073149     -0.436846      0.043956
H      -2.068604     -0.430146      0.004226
