12
Extracted from Q-Chem output
N       2.009699      1.010922     -0.892091
C       1.540993      0.186913     -0.169307
C       0.667992     -0.484804      0.675046
C      -0.355032      0.920591      0.354045
C      -1.185850     -0.151168     -0.396689
N      -0.401713     -1.277620      0.136609
H       1.022251     -0.679729      1.683598
H      -0.784160      1.096461      1.347242
H       1.063680      1.621483     -0.644997
H      -1.111337     -0.050173     -1.486616
H      -2.244356     -0.221831     -0.132640
H      -0.146103     -2.022454     -0.497405
