12
Extracted from Q-Chem output
O       0.838084      2.030553      0.779220
C       0.378766      1.034991      0.275659
C      -1.047378      0.735897      0.044440
C      -0.533780     -1.477222     -0.061325
O       0.537264     -1.117642     -0.751807
C       1.301282     -0.152498     -0.041965
H      -1.338920      0.631485     -0.995816
H      -1.731857      1.340959      0.630741
H      -0.965915     -0.551997      0.640848
H      -1.258299     -1.919557     -0.757713
H       2.135380      0.149132     -0.670469
H       1.670421     -0.562329      0.903495
