19
Extracted from Q-Chem output
C      -2.355298      0.498886      0.272807
C      -1.048601     -0.265614      0.419256
C      -0.724711     -1.182046     -0.844761
O       0.432323     -0.695498     -1.456720
C       1.351221     -0.131376      0.271503
C       2.675219      0.485269      0.004266
C       0.168453      0.620831      0.435147
H      -3.205095     -0.183994      0.210541
H      -2.347355      1.103108     -0.638601
H      -2.526849      1.168035      1.119093
H      -1.100006     -0.903231      1.306927
H      -0.598286     -2.228434     -0.541771
H      -1.567323     -1.140137     -1.544496
H       1.377023     -1.186822      0.532721
H       3.150588     -0.014446     -0.840701
H       3.321861      0.341400      0.873978
H       2.592143      1.550186     -0.210498
H       0.302756      0.515617     -0.865157
H       0.185891      1.644625      0.787237
