12
Extracted from Q-Chem output
N       2.044264      0.470386     -0.201444
C       0.742679      0.085597     -0.030439
C       0.233925     -1.203668      0.139486
N      -1.236025     -1.044855      0.277182
C      -1.365162      0.267056      0.086351
O      -2.579988      0.818188      0.034648
N      -0.255245      0.982339     -0.069221
H       2.753711     -0.131887      0.174619
H       2.211962      1.453757     -0.077658
H       0.699869     -2.101972      0.509525
H      -0.686563     -1.491203     -0.722032
H      -2.458621      1.759013     -0.124430
