14
Extracted from Q-Chem output
O       0.179491      1.521016     -1.030017
C       0.501410      1.031133      0.113443
C       1.432192     -0.165592      0.102746
C       0.564075     -1.357956     -0.184039
C      -0.734845     -1.161613     -0.324720
C      -1.359063      0.158814     -0.216655
N       0.056989      1.410094      1.298117
H       1.932911     -0.280429      1.064978
H       2.180318     -0.043354     -0.683044
H       0.997374     -2.347248     -0.273105
H      -1.440410     -1.959308     -0.550157
H      -1.895844      0.382800      0.695221
H      -1.756128      0.603893     -1.118789
H      -0.493557      2.260963      1.167429
