15
Extracted from Q-Chem output
C      -1.796540     -0.254295     -0.661205
C      -0.722883     -0.033238      0.368286
O       1.408771      1.368195      1.898223
C       1.458524      1.249314      0.702510
C       0.332744     -1.055720      0.615141
C       0.698714      0.235331     -0.074374
O       0.951615      0.245747     -1.444655
H      -1.408596     -0.791018     -1.526400
H      -2.615509     -0.834640     -0.232163
H      -2.202085      0.695488     -1.013399
H      -1.012118      0.545453      1.238827
H       2.088470      1.914672      0.077107
H       0.705269     -1.188455      1.622510
H       0.327443     -1.937389     -0.014623
H       1.709644     -0.312725     -1.626477
