14
Extracted from Q-Chem output
C      -1.259397     -0.684356      0.739105
C      -0.808536     -0.264593     -0.633616
C      -0.325914      1.087682     -0.862452
N       1.683566      0.898927      0.283398
C       1.607320     -0.382737      0.108620
O       2.097219     -1.407397      0.495442
O       0.547818     -0.573729     -0.990038
H      -0.635593     -0.240269      1.514290
H      -1.207439     -1.769302      0.827725
H      -2.293728     -0.371585      0.891959
H      -1.444802     -0.665885     -1.422223
H      -0.269333      1.841677     -0.099328
H      -0.165344      1.391511     -1.887020
H       2.329756      1.141302      1.025147
