19
smiles: [C:1](=[C:2]([H:11])[H:12])([H:9])[H:10].[C:3]1([H:13])=[C:7]([H:19])[C@@:5]([C:6]([H:8])([H:17])[H:18])([H:16])[C:4]1([H:14])[H:15]
C        3.08841200       0.16072300      -1.27081200
C        3.06428900       1.25059800      -0.52314600
C        0.12794800      -0.47965300       0.91291200
C       -0.53795100      -0.12001900      -0.39465300
C       -1.81948600       0.14097400       0.46295100
C       -3.03662700      -0.70816100       0.14545000
C       -0.96276900      -0.26778000       1.64520800
H       -2.77284700      -1.76836600       0.11176800
H        4.00435700      -0.19552800      -1.72835500
H        2.19344400      -0.42243600      -1.45553500
H        3.95921300       1.83373700      -0.33806200
H        2.14828600       1.60666100      -0.06560900
H        1.13828900      -0.78760300       1.15357200
H       -0.64316400      -0.93771200      -1.11211700
H       -0.13661600       0.75374800      -0.91333300
H       -2.09477100       1.20025600       0.47932600
H       -3.81455500      -0.57975500       0.90158400
H       -3.46371500      -0.43318900      -0.82200900
H       -1.17863800      -0.34969800       2.70428000
