19
Extracted from Q-Chem output
C       1.409988     -0.045398     -1.248849
C       1.650107     -0.577506      0.050880
C       0.237234     -0.529990      1.112375
C      -0.382649      0.876392      1.251429
C      -1.584187      0.372114      0.394069
C      -1.272603      0.424918     -1.061849
C      -0.982172     -0.986283      0.558981
H      -0.034050      0.068188     -1.253377
H       1.430495     -0.714699     -2.102880
H       1.729305      0.967893     -1.467396
H       1.913073     -1.632404      0.082895
H       2.326727      0.009191      0.667976
H       0.681078     -1.031986      1.967011
H       0.184435      1.715103      0.840699
H      -0.673166      1.102878      2.276551
H      -2.591922      0.621219      0.731373
H      -1.963232     -0.165868     -1.658185
H      -1.108612      1.407903     -1.507185
H      -1.351227     -1.970361      0.292666
