12
Extracted from Q-Chem output
N      -2.140468      0.011086     -0.559570
C      -1.364724     -0.305514      0.488531
C       0.557982     -0.988288      0.097642
C       1.246491      0.101215     -0.082599
O       2.346610      0.599475     -0.678411
C       0.516003      0.702469      1.000584
O      -0.801088      0.880385      0.983306
H      -2.065334      0.878225     -1.071377
H      -2.753890     -0.693042     -0.924841
H       0.650319     -2.056137     -0.018520
H       2.815296     -0.120069     -1.112722
H       1.016665      1.063560      1.896521
