9
Extracted from Q-Chem output
N      -0.937455     -0.586836     -0.071950
C      -0.822084      0.779330      0.218801
C       0.496225      1.142376      0.215869
C       1.133161     -0.159714     -0.108257
N       0.128079     -1.213931     -0.274843
H      -1.808512     -1.106470     -0.131197
H      -1.737208      1.326527      0.394909
H       1.720258     -0.127665     -1.033970
H       1.833905     -0.498555      0.663942
