13
Extracted from Q-Chem output
C       1.568049     -0.412609      0.467146
C       1.713285      0.055376     -0.937278
C       0.535083     -0.760107     -0.542528
C      -0.795993     -0.078325     -0.655159
N      -1.728776     -0.106277      0.463774
C      -1.103651      1.159042      0.089404
H       2.245211     -1.199549      0.782220
H       1.444563      0.369515      1.210852
H      -0.346151      1.578283      0.742238
H       0.540749     -1.790077     -0.889200
H      -1.265281     -0.211274     -1.623896
H      -1.272623     -0.495565      1.281641
H      -1.771124      1.889987     -0.349720
