16
Extracted from Q-Chem output
C      -1.404675      0.461150     -0.868988
C      -0.447164     -0.348680      0.006951
C      -0.816045     -0.235954      1.487075
C       0.978658      0.069904     -0.226790
O       1.179618      1.373965      0.106810
C       1.933894     -0.724037     -0.701239
H      -1.156349      0.354114     -1.926441
H      -1.360168      1.521443     -0.614886
H      -2.431659      0.120014     -0.723651
H      -0.511612     -1.399305     -0.287409
H      -0.746603      0.798969      1.825850
H      -0.151969     -0.841915      2.105966
H      -1.840160     -0.578140      1.649355
H       1.715358     -1.752288     -0.949011
H       2.948743     -0.373550     -0.853178
H       2.095906      1.607990     -0.057912
