16
Extracted from Q-Chem output
C      -1.246974      0.233458     -0.932699
C      -0.407554     -0.376122      0.198846
C      -0.977750     -0.053373      1.573567
C       1.015889      0.055437      0.038166
O       1.551323      0.913156      0.823705
C       1.994228     -0.374478     -0.894881
H      -0.861518     -0.049996     -1.912321
H      -1.249758      1.323425     -0.865545
H      -2.279332     -0.111075     -0.855190
H      -0.395161     -1.462310      0.049970
H      -1.005748      1.024818      1.736636
H      -0.374671     -0.493207      2.368214
H      -1.994659     -0.440215      1.660337
H       1.930581     -1.344598     -1.377061
H       2.278961      0.428137     -1.575116
H       2.543097      0.446833      0.211932
