12
Extracted from Q-Chem output
O      -2.097642      0.784818      0.458921
C      -2.047259     -0.482908     -0.117537
C       0.163071     -0.111203     -0.915908
N       1.179823      0.556464     -1.128024
N       2.282641      0.343997     -0.283820
C       2.288403     -0.455000      0.728368
N      -0.854820     -0.749456     -0.898603
H      -2.271158      1.438477     -0.221965
H      -2.900600     -0.669783     -0.775018
H      -2.066236     -1.204964      0.698303
H       3.044803      0.927922     -0.607593
H       3.297742     -0.380423      1.163040
