11
Extracted from Q-Chem output
C       2.477068     -0.406780     -0.203913
C       1.319816     -0.220437     -0.482196
C      -0.015824     -0.051953     -0.943713
C      -1.049262     -0.661697     -0.080300
C      -0.956668      0.768963      0.428023
H       3.505158     -0.568256      0.018066
H      -0.308498      1.275592     -0.440980
H      -1.990654     -0.913677     -0.557276
H      -0.731747     -1.402277      0.648711
H      -1.861092      1.354720      0.292521
H      -0.443659      0.891789      1.373796
