13
Extracted from Q-Chem output
N      -2.300448     -0.250737      0.074795
C      -0.920124      0.022616      0.149237
C      -0.256543      1.125130     -0.387684
C       1.093426      0.810358     -0.468043
C       1.235172     -0.481595      0.035648
O       2.371139     -1.174618      0.271794
N       0.071175     -1.044450      0.374572
H      -2.644496     -0.751788      0.880514
H      -2.523221     -0.790570     -0.751280
H      -0.738769      2.041494     -0.692620
H       1.892310      1.461417     -0.794107
H       3.125087     -0.631793      0.034895
H      -0.414716     -0.330798      1.284009
