14
Extracted from Q-Chem output
C      -2.314665     -0.438638      0.336701
C      -1.082983      0.247173     -0.201284
O      -0.094198      0.241368      0.854566
C       1.074784      0.839940      0.665819
O       1.258498      1.366512     -0.488417
C       2.565834      0.184479     -0.222969
H      -2.090429     -1.465187      0.629490
H      -2.702740      0.088700      1.208697
H      -3.093618     -0.461413     -0.427514
H      -0.677544     -0.271798     -1.072558
H      -1.289350      1.277027     -0.496796
H       3.359366      0.715563      0.279923
H       2.679364      0.135911     -1.305470
H       2.403420     -0.814160      0.178755
