13
Extracted from Q-Chem output
O       0.620792     -1.167149      1.219336
C       0.477972     -0.914404     -0.029663
C      -0.968067     -0.611400     -0.397238
C      -1.033496      0.702817      0.402610
C       0.387775      0.867582      0.849844
O       1.137748      1.504486      1.437070
C       1.448541     -0.383423     -0.845330
H      -1.647169     -1.364908     -0.005506
H      -1.144012     -0.452178     -1.459478
H      -1.656021      0.674788      1.298943
H      -1.303143      1.579859     -0.188745
H       2.472556     -0.342038     -0.498873
H       1.231396     -0.134153     -1.875241
