13
Extracted from Q-Chem output
C      -1.759758      0.365986     -0.513958
C      -0.488225      0.175341      0.255128
O      -0.667944     -0.636689      1.331143
C       0.846862      0.277934     -0.413715
O       0.326608      1.292236      0.444570
C       1.950547     -0.557895      0.117870
O       2.101633     -0.797002      1.290165
H      -2.510225      0.802794      0.145576
H      -1.597720      1.030806     -1.360267
H      -2.128500     -0.595428     -0.869678
H       0.912664      0.545991     -1.465101
H       0.178910     -0.712761      1.798616
H       2.621007     -1.002990     -0.640715
