13
Extracted from Q-Chem output
C      -1.677031      0.105839     -0.707178
C      -0.564895     -0.087057      0.236983
O      -0.783792     -0.778065      1.291525
C       0.770623      0.580643      0.160737
O       0.692033      1.142140      1.381882
C       1.887810     -0.457915     -0.065706
O       2.448168     -1.011236      0.834071
H      -1.932957      1.169297     -0.676182
H      -1.347934     -0.111274     -1.724840
H      -2.548734     -0.484618     -0.435146
H       0.786212      1.267131     -0.709674
H      -0.028374     -0.468399      1.882298
H       2.134153     -0.685954     -1.126871
