14
Extracted from Q-Chem output
C      -1.304936     -1.164836     -0.419584
N      -1.785734      0.519083     -0.147187
C      -0.444578     -0.018195     -0.145676
C       0.609543      0.297361      0.913761
C       1.663198     -0.304817     -0.036498
C       0.752935      0.638944     -0.843171
O       0.820152      1.600816      0.270856
H      -1.556771     -1.677907      0.515315
H      -2.261343     -0.293974     -0.844094
H      -2.178280      0.574154      0.785709
H       0.548108      0.261697      2.000637
H       1.613249     -1.372489     -0.250866
H       2.672757      0.067328      0.120816
H       0.853142      1.016793     -1.856950
