11
smiles: [C:6](#[N:7])[H:11].[O:1]=[C:2]=[C:3](/[C:4](=[N:5]/[H:10])[H:9])[H:8]
O        2.19541300      -0.98201600      -0.12955000
C        1.75094700       0.07494900      -0.10567200
C        1.25127900       1.29941600      -0.07873600
C       -0.18606700       1.49987500       0.03643800
N       -1.00380100       0.53250000       0.11258100
C       -1.16056000      -2.63056800       0.02572900
N       -1.26911300      -3.76875700       0.00083100
H        1.94946100       2.12048200      -0.14784800
H       -0.49192700       2.55089600       0.05045300
H       -1.95946700       0.86587400       0.18655600
H       -1.05991400      -1.56720400       0.04928200
