10
Extracted from Q-Chem output
O      -1.601259      0.992864     -1.828265
C      -1.625975      0.004273     -1.157884
C      -0.744549     -0.175892      0.023903
N      -0.567475     -0.970594      0.960082
O       2.019335     -0.859461     -0.410017
C       1.751077     -0.025370      0.410417
C       0.358749      0.248830      0.865296
H      -2.302125     -0.845453     -1.353776
H       2.537444      0.598115      0.877541
H       0.216628      1.012992      1.621861
