16
smiles: [C:1](=[C:2]([C:4]([N:5]([C:6](=[O:7])[H:16])[H:15])([H:13])[H:14])[H:11])([H:8])[H:9].[O:3]([H:10])[H:12]
C       -1.65179200      -2.07121500      -0.07950600
C       -0.89171000      -1.00710200      -0.28212400
O       -0.87710500       2.19660800      -1.10095000
C       -0.06095300      -0.35209800       0.77982800
N        1.34637600      -0.33649800       0.42872800
C        2.06339500       0.80152800       0.27755000
O        1.63821000       1.92263800       0.42924800
H       -1.71622600      -2.54238300       0.89620600
H       -2.24338700      -2.50647900      -0.87532100
H       -1.01900800       3.05218200      -1.50819700
H       -0.83909800      -0.55257500      -1.26818000
H       -0.02523700       2.25912100      -0.66700200
H       -0.35145500       0.69223000       0.90641400
H       -0.20399000      -0.85758200       1.73903300
H        1.80683100      -1.21204200       0.25151000
H        3.11201600       0.59847500      -0.00493800
