10
Extracted from Q-Chem output
N       1.231073      0.365678      0.943433
C      -0.266297      0.014050     -1.768552
N      -0.928277     -0.900075     -1.051177
C      -1.168150     -0.684185      0.189114
N      -0.982220      0.490644      0.897385
N       0.109546      1.011235      1.181332
N       0.329097      0.734824     -2.443942
H       1.264910     -0.441109      0.334190
H       2.057864      0.922635      1.059940
H      -1.725091     -1.447613      0.728188
