10
Extracted from Q-Chem output
N       1.181620      0.331644      0.248896
C       0.509267     -0.011398     -1.013082
N      -0.586483     -0.892530     -0.772875
C      -1.428341     -0.689935      0.148176
N      -1.212263      0.351326      1.112559
N      -0.297805      0.980714      1.398073
N       0.693219      0.482575     -2.110202
H       1.660310     -0.444833      0.694082
H       1.794782      1.127965      0.122736
H      -2.391846     -1.169445      0.241548
