12
Extracted from Q-Chem output
C      -1.281585      0.572790      0.372636
C      -0.571767     -0.709227      0.057820
O      -0.170540     -0.793535     -1.341565
C       0.888202     -0.783214     -0.004982
C       1.708746      0.424615      0.024236
O       2.079150      0.908456      1.066493
H      -1.271079      0.731251      1.452131
H      -0.789738      1.422068     -0.101120
H      -2.318951      0.530300      0.039587
H      -1.102348     -1.602355      0.383091
H       0.697914     -1.494629     -1.140093
H       2.045539      0.815957     -0.957137
