19
Extracted from Q-Chem output
C       1.648977      0.994178      1.141632
O       1.880254     -0.133477     -0.496533
C       0.770706     -1.017771     -0.593019
C      -0.514576     -0.194475     -0.345483
C      -0.214898      1.249904     -0.564886
C      -1.810818     -0.866314     -0.680053
C      -1.428302     -0.644669      0.758227
H       2.486213      0.405222      1.490376
H       0.712512      0.815916      1.645714
H       1.867733      2.026760      0.918932
H       0.764907     -1.427312     -1.607349
H       0.911321     -1.835205      0.117406
H       1.412990      0.742174     -0.784028
H      -0.651443      1.943360      0.147620
H      -0.358104      1.592306     -1.592473
H      -1.782759     -1.884238     -1.055877
H      -2.600542     -0.254362     -1.096290
H      -1.148157     -1.514731      1.341803
H      -1.966735      0.113349      1.314086
