11
Extracted from Q-Chem output
N       1.346168     -0.414231      1.250219
C      -0.234495      0.078901     -1.125364
C      -0.714007     -0.401704      0.216118
O       0.030451      0.105808      1.307942
C      -0.830240      1.057206     -1.759593
O      -1.374856      1.909924     -2.319657
H       1.508401     -0.796218      2.175870
H       1.947878      0.398452      1.161483
H       0.650280     -0.343725     -1.580726
H      -1.737022     -0.074182      0.405321
H      -0.686588     -1.494909      0.236818
