11
Extracted from Q-Chem output
N       1.375933      0.011463      0.789878
C      -0.247517     -0.342208     -1.021469
C      -0.921414     -0.836059      0.185786
O      -0.662257      0.279347      0.985103
C      -0.116444      0.976768     -0.612730
O       0.066272      2.117643     -0.767924
H       1.248318      0.560708      1.636740
H       1.906655      0.616402      0.160732
H      -0.140393     -0.708962     -2.032371
H      -2.013353     -0.863939      0.033415
H      -0.589831     -1.785843      0.611273
