17
smiles: [C:1](=[C:2]1[C@@:6]2([H:17])[C:3]([H:11])([H:12])[C@:4]([H:13])([C:5]2([H:14])[H:15])[O:7]1)([H:8])[H:9].[H:10][H:16]
C        2.23825100       0.23969300      -0.13929500
C        0.97811600      -0.15194600      -0.22235400
C       -0.77236100      -1.45239900       0.59769300
C       -0.93341700      -0.99959700      -0.86095600
C       -1.28437000       0.39432700      -0.32063900
C       -0.18825100      -0.01136900       0.71139600
O        0.43768400      -0.83188000      -1.28845600
H        2.93887700       0.03730800      -0.93761200
H        2.58145500       0.76906700       0.73745400
H        0.76336300       2.89262700       0.12342000
H       -1.72110100      -1.56036300       1.12060300
H       -0.10743200      -2.29334300       0.79106200
H       -1.49163300      -1.53371200      -1.62367900
H       -2.27713700       0.44522400       0.12333800
H       -1.08979300       1.24665500      -0.97060300
H        0.43986400       3.49874000       0.41040200
H       -0.02955100       0.50207700       1.65454000
