13
Extracted from Q-Chem output
O      -0.086655     -0.667815      1.708268
C       0.511815     -0.820451      0.451630
C      -0.515294     -0.701033     -0.687288
C      -1.162394      0.607289     -0.688263
C      -1.668716      1.691759     -0.636655
C       2.886430     -0.177860      0.178581
C       1.647333      0.174677      0.244372
H      -0.539574      0.181633      1.733105
H       0.920473     -1.830762      0.437112
H      -1.268993     -1.479114     -0.547850
H      -0.022745     -0.874251     -1.646240
H      -2.133506      2.649564     -0.616670
H       1.412891      1.234958      0.138362
