14
Extracted from Q-Chem output
C       1.493028     -0.366506     -0.502304
C      -0.046835     -0.853786     -0.410377
C      -1.177437      0.150059     -0.373173
C      -0.849401     -0.635738      0.818012
N       0.676010      1.181940      1.025752
C       1.116443      1.016448     -0.176011
C      -0.739701      0.879201      0.881219
H       1.890487     -0.547147     -1.502126
H       2.062793     -0.877215      0.270703
H      -0.247584     -1.763045     -0.967561
H      -2.061074      0.216925     -0.987930
H      -1.380624     -1.314523      1.463107
H       0.624439      1.516332     -1.029113
H      -1.481666      1.405133      1.472437
