14
Extracted from Q-Chem output
C       1.231427     -0.300961     -0.626495
C      -0.052510     -1.089242     -0.366365
C      -1.237439     -0.202953     -0.463201
C      -0.846488     -0.619735      0.825706
N       0.679702      0.788782      1.464741
C       0.905374      0.984683      0.130183
C      -0.608595      0.908440      0.432189
H       1.385163     -0.158442     -1.699150
H       2.109057     -0.779775     -0.190964
H      -0.143268     -2.137415     -0.621655
H      -2.130795     -0.057454     -1.045808
H      -1.244905     -1.028965      1.735423
H       1.178487      1.963257     -0.272584
H      -1.254250      1.730008      0.697946
