16
Extracted from Q-Chem output
C      -1.855176     -1.827509      0.335791
O      -1.167828     -1.005340      1.241335
C      -0.677449      0.189070      0.683242
C       2.247278      1.816857     -0.460838
C       1.061590      1.295340     -0.734488
C       0.554399     -0.008078     -0.200408
H      -2.293909     -2.643899      0.908310
H      -1.193926     -2.256261     -0.426719
H      -2.660511     -1.278074     -0.170270
H      -1.472720      0.693897      0.113455
H       2.954841      1.303412      0.182125
H       2.558121      2.769727     -0.871596
H       0.383571      1.845515     -1.384359
H       0.300994     -0.665334     -1.038517
H      -0.417932      0.832556      1.526307
H       1.331067     -0.509015      0.382351
