16
Extracted from Q-Chem output
C      -2.213668     -1.473245      0.592480
O      -1.157752     -1.606951     -0.339053
C      -0.517797     -0.476247     -0.741557
C       1.937869      2.091976     -0.382751
C       1.707395      0.815267     -0.653015
C       1.027907     -0.107967      0.291700
H      -2.693132     -2.446554      0.695068
H      -2.948991     -0.740002      0.245654
H      -1.826097     -1.154571      1.568886
H      -1.155899      0.429960     -0.732702
H       1.658975      2.529131      0.570712
H       2.406112      2.747532     -1.106011
H       1.960608      0.391736     -1.617402
H       1.374402     -1.134609      0.251190
H      -0.192819      0.061534      0.450503
H       1.160299      0.249000      1.330970
