14
Extracted from Q-Chem output
C       1.961698      0.062465     -1.239145
C       0.738845     -0.461213     -0.629787
C      -0.222912      0.601466     -0.312214
C      -1.228836      0.318412      0.775448
C      -1.501117     -1.027753      1.262854
O      -0.692051     -0.126804      2.008643
H       1.931060      1.072705     -1.672999
H       2.476917     -0.643898     -1.889608
H       2.582346      0.123149     -0.324561
H       0.210348      1.606900     -0.184213
H      -0.751334      0.638276     -1.286479
H      -2.009643      1.069535      0.885054
H      -2.469425     -1.246430      1.704116
H      -0.966346     -1.857240      0.813537
