14
Extracted from Q-Chem output
C       1.867704     -0.005752     -0.609083
C       0.462167     -0.367866     -0.309641
C      -0.628324      0.603212     -0.736412
C      -1.171264      0.416304      0.652585
C      -1.221141     -1.006775      0.942318
O       0.126555      0.129020      1.252361
H       2.089396      1.038350     -0.327939
H       2.018355     -0.106845     -1.688780
H       2.584688     -0.659988     -0.111079
H      -0.298250      1.639316     -0.905892
H      -1.283445      0.281322     -1.549197
H      -1.794559      1.128236      1.186415
H      -1.382625     -1.269667      1.982049
H      -1.345178     -1.787286      0.210298
