13
Extracted from Q-Chem output
N      -1.974548      0.460173     -0.516488
C      -0.695213      0.127109     -0.189141
C      -0.200027     -1.295992     -0.230078
N       1.201328     -1.259762      0.127939
C       1.465931     -0.027987      0.330410
O       2.701696      0.364010      0.684687
C       0.351276      0.902100      0.157698
H      -2.669419     -0.263660     -0.496511
H      -2.308173      1.378151     -0.285139
H      -0.760722     -1.928047      0.467696
H      -0.331786     -1.724074     -1.229279
H       2.716497      1.317170      0.784987
H       0.377263      1.975623      0.282347
