17
Extracted from Q-Chem output
C      -2.086598     -0.059486      0.179587
C      -0.834555      0.321271      0.674271
O      -0.198670     -1.531674      1.204183
C       0.849500     -1.107938      0.397595
C       0.546810     -0.902621     -1.056646
C       0.455370      0.256329     -0.090521
C       1.276710      1.506635     -0.215239
H      -2.970520      0.143022      0.770241
H      -2.213830     -0.167685     -0.890575
H      -1.466317     -1.121781      0.591771
H      -0.754919      0.731116      1.675862
H       1.861193     -1.348937      0.712991
H       1.393042     -0.848925     -1.730718
H      -0.338028     -1.358438     -1.484187
H       0.832672      2.217152     -0.917374
H       1.389030      2.004540      0.751485
H       2.275653      1.261069     -0.577814
