14
Extracted from Q-Chem output
N       2.506453      0.223962      0.668285
C       1.452193      0.086409      0.006465
O       0.977785     -1.064711     -0.585956
C      -0.297280     -0.625562     -0.978345
C      -1.288587     -0.416576      0.164582
C      -0.726379      0.896256      0.736361
C       0.423175      1.124216     -0.256824
H       2.997143     -0.656630      0.793509
H      -0.627352     -1.153064     -1.872997
H      -1.310026     -1.274352      0.839031
H      -2.293556     -0.280488     -0.237911
H      -0.325936      0.803055      1.747607
H      -1.450833      1.709518      0.729589
H      -0.097106      0.529483     -1.384650
