11
Extracted from Q-Chem output
C      -1.347739     -0.523091     -0.756207
N      -0.565334     -0.259315      0.424806
C       0.635773      0.251946      0.480625
N       0.805407      0.734296      1.695711
C       1.582580      0.290184     -0.608481
N       2.320779      0.308910     -1.485865
H      -0.712659     -0.598286     -1.643158
H      -2.079170      0.271596     -0.926100
H      -1.888154     -1.462361     -0.638323
H      -0.435060      0.190872      1.691738
H       1.721896      0.821161      2.109435
