19
Extracted from Q-Chem output
C      -1.769517     -0.272945      1.463308
O      -0.505272     -0.585030      1.028487
C      -0.153111     -0.085775     -0.113989
C      -0.891041      2.101830      0.436479
C       1.288036     -0.081741     -0.466598
C       1.711800     -1.281121     -1.316614
O       1.659908     -2.499050     -0.610772
H      -2.555065     -0.544582      0.755139
H      -1.497026      1.103327      1.049640
H      -1.920967     -0.652872      2.467994
H      -0.902253     -0.068647     -0.902827
H       0.094164      2.336920      0.838624
H      -1.603564      2.813764      0.865778
H      -0.893756      2.265214     -0.640497
H       1.882308     -0.051843      0.448826
H       1.488449      0.835712     -1.031430
H       1.099346     -1.323781     -2.227946
H       2.750683     -1.156862     -1.626218
H       0.783332     -2.608140     -0.234791
