13
Extracted from Q-Chem output
O       2.122704     -0.711574      0.779426
C       1.163949     -0.227230     -0.102867
C       0.218930     -1.212821     -0.665078
C      -0.281176     -0.193317      0.338634
N      -2.033231      1.404289      0.652958
C      -1.147255      0.909629     -0.102508
H       2.283299     -0.046723      1.452219
H       1.499993      0.576256     -0.754605
H       0.307192     -2.229669     -0.308335
H      -0.084104     -1.107250     -1.698977
H      -0.479478     -0.555472      1.339556
H      -2.529522      2.159179      0.185847
H      -0.967916      1.271178     -1.125332
