14
smiles: [C:1](=[N:2][C:3](=[N+:4]([H:11])[H:12])[C:5](=[O:6])[N-:7][H:14])([H:8])[H:10].[H:9][H:13]
C        1.56862000       0.75220000      -0.18559200
N        1.05728400      -0.33366200      -0.58418000
C        0.09417600      -0.98847500       0.07558300
N        0.15923100      -2.26037300       0.30723500
C       -1.21857300      -0.34439900       0.59003100
O       -2.03458100      -1.19096900       1.00293500
N       -1.15505800       0.94559700       0.53649200
H        1.40038000       1.15007800       0.81265300
H       -0.24549700       3.07314500      -1.81266200
H        2.21426300       1.29826500      -0.86839800
H       -0.70479500      -2.60951200       0.73330400
H        0.94560600      -2.83466900       0.05776100
H       -0.48020100       2.58714000      -1.29977500
H       -1.98643400       1.34048000       0.96795300
