14
Extracted from Q-Chem output
C       1.894206      0.720472     -0.487406
N       0.452764      0.725742     -0.402120
C      -0.102096     -0.266184      0.169577
N       0.474723     -1.350321      0.738220
C      -1.621589     -0.296808      0.281530
O      -2.189049     -1.247955      0.784309
N      -2.219559      0.792139     -0.218309
H       2.267586     -0.135047     -1.066956
H       2.362263      0.681447      0.505285
H       2.236922      1.627822     -0.982001
H      -0.148466     -2.069661      1.065402
H       1.448309     -1.550758      0.617220
H      -1.636302      1.506906     -0.621241
H      -3.219711      0.862206     -0.202171
