14
Extracted from Q-Chem output
C       1.446414      0.993135     -0.464618
N       1.064349     -0.240169     -0.531856
C       0.113594     -0.855799      0.135558
N       0.226264     -2.119261      0.461156
C      -1.263981     -0.271144      0.498517
O      -2.075125     -1.080312      0.954930
N      -1.335101      1.021670      0.278041
H       1.398643      1.553824      0.466430
H       0.242423      2.139638     -1.155102
H       2.125836      1.346967     -1.232649
H      -0.614788     -2.518394      0.867811
H       1.045432     -2.658017      0.243093
H      -0.386040      1.813788     -0.677109
H      -2.262511      1.360694      0.518356
