12
smiles: [C:1]([C:3]([H:9])([H:10])[H:11])([H:5])([H:6])[H:7].[C:2]([O:4][H:12])[H:8]
C       -0.37088000      -0.92379000       1.21615600
C       -0.45943600       1.04922500      -2.13557500
C        0.86740100      -0.73044300       0.35149700
O       -1.22833300       1.63595800      -1.26424700
H       -1.16282000      -0.22568100       0.93802800
H       -0.77266100      -1.93402300       1.11613400
H       -0.14724100      -0.76195200       2.27250800
H        0.55396500       1.52012700      -2.05005000
H        0.64383000      -0.89208800      -0.70488800
H        1.26911200       0.27981700       0.45168200
H        1.65929500      -1.42856900       0.62965200
H       -0.80404800       2.32961100      -0.73512300
