16
Extracted from Q-Chem output
C       2.069734      0.649701      0.570199
C       1.035953      0.141435     -0.437299
C      -0.248675     -0.101056      0.288815
C      -1.561945     -1.538125     -0.286709
C      -1.218607      0.983622      0.228032
O      -1.533641      0.117463     -0.848010
H       2.216363     -0.069081      1.377897
H       1.752820      1.594981      1.016431
H       3.031396      0.813996      0.082594
H       1.397298     -0.789478     -0.884593
H       0.912972      0.867969     -1.252299
H      -2.226232     -1.754806     -1.126858
H      -0.715066     -2.217664     -0.312371
H      -2.083784     -1.595806      0.660130
H      -0.880807      1.933882     -0.183476
H      -1.993142      1.085650      0.988194
