11
Extracted from Q-Chem output
N      -1.667912      0.316836      0.042983
C      -0.208968      0.177655      0.022352
C       0.604065     -0.930866     -0.122743
C       1.858090     -0.314689     -0.041606
N       1.748643      1.008189      0.131743
N       0.446748      1.315518      0.171647
H      -2.106810     -0.178828      0.817366
H      -2.110861      0.025215     -0.826841
H       0.356906     -1.971212     -0.260966
H       2.830458     -0.782363     -0.102035
H      -1.807565      1.324602      0.169357
