16
smiles: [C:4]1([H:7])([H:12])[C:5]([H:13])([H:14])[C:6]1([H:15])[H:16].[O:1]=[C:2]([C:3]([H:9])([H:10])[H:11])[H:8]
O        1.71437000       0.67913300      -0.76450500
C        2.30966100      -0.36214100      -0.73322000
C        1.67290800      -1.70071200      -0.51129700
C       -1.30161300       0.44484900       0.94642900
C       -1.73234400       0.42032200      -0.48870100
C       -1.59004400       1.72851900       0.22858400
H       -0.26982200       0.20925000       1.17193700
H        3.41173700      -0.37862400      -0.87259500
H        1.90508200      -2.36019700      -1.35144700
H        2.10338800      -2.16138600       0.38183800
H        0.59514700      -1.60098000      -0.39768900
H       -2.00879600       0.11234700       1.69483400
H       -0.99253700       0.16894400      -1.23717100
H       -2.73115700       0.07063100      -0.71434900
H       -0.75446700       2.36424200      -0.03317000
H       -2.49214000       2.26544700       0.49097600
