11
Extracted from Q-Chem output
C      -1.133092     -0.518261     -0.214657
C       0.006435     -0.264378      0.727581
C       1.639418     -0.110001     -0.383749
O       0.761259      0.607011     -1.234667
C      -0.324342      0.716989     -0.371204
H      -2.113011     -0.376845      0.224208
H      -1.056756     -1.302464     -0.957668
H      -0.057799     -0.122308      1.794926
H       0.936304     -0.981003      0.304378
H       2.045179      0.605667      0.349926
H      -0.750805      1.703650     -0.222488
