17
Extracted from Q-Chem output
O       1.003746     -1.077539      1.198845
C       1.468570     -0.677367     -0.084917
C       0.337639     -0.233378     -0.976304
C      -0.746534      0.744726     -0.611785
C      -1.079025     -0.702641     -0.822270
O      -1.115221      0.581532      1.836950
C      -0.904883      1.428547      0.737461
H       1.755705     -1.320536      1.739870
H       1.976075     -1.522376     -0.564665
H       2.195582      0.138254      0.018045
H      -0.371501     -0.034194      1.876742
H       0.687788     -0.139893     -1.999725
H      -1.012969      1.410468     -1.426894
H      -1.628980     -0.999156     -1.705733
H      -1.314330     -1.267151      0.070524
H      -1.786539      2.071282      0.683574
H      -0.041197      2.088664      0.908946
