12
Extracted from Q-Chem output
N      -1.870299     -0.516687      0.839126
C      -0.617430     -0.334446      0.374214
N       0.420407     -0.951038      0.859364
C       1.526102     -0.427832      0.203370
O       2.674506     -0.745737      0.350781
C       1.045247      0.649385     -0.787964
N      -0.394332      0.541011     -0.655072
H      -1.987343     -1.268851      1.494658
H      -2.649590     -0.300345      0.244963
H       1.392619      0.425576     -1.796326
H       1.423244      1.627679     -0.484847
H      -0.981310      1.352236     -0.746438
