16
smiles: [C:1]([C:2]1=[C:6]([H:16])[C:5]([H:13])([H:14])[C:4]1([H:11])[H:12])([H:7])([H:8])[H:9].[O:3]([H:10])[H:15]
C        1.77176800       0.79364400      -0.62827700
C        0.34666200       0.58937600      -0.26440000
O        0.64846100      -2.29118200       1.26256700
C       -0.78730800      -0.06182500      -1.02871900
C       -1.67235200       0.28679800       0.20561600
C       -0.41329100       0.88264500       0.79179600
H        1.85637800       1.37326100      -1.55146600
H        2.26892500      -0.16401700      -0.80504500
H        2.31038000       1.32031700       0.16039800
H       -0.23508000      -2.65085000       1.35177900
H       -1.07657700       0.43417400      -1.95867800
H       -0.66965600      -1.13065500      -1.22415900
H       -2.08479300      -0.57722800       0.73132100
H       -2.48141900       0.99149100       0.00095400
H        0.53158900      -1.34347900       1.18593300
H       -0.20999600       1.37470300       1.73615800
