12
Extracted from Q-Chem output
O       1.917298     -0.884686     -0.332930
C       1.078825     -0.980708     -1.170122
C      -0.113380      0.868879      0.948621
C      -0.672902      1.848796      0.255065
N      -0.700555     -0.382694      1.179295
C      -0.721633     -1.302835      0.342843
O      -0.226203     -1.260963     -0.955368
H       1.239468     -0.882809     -2.250585
H       0.835129      0.996652      1.459705
H      -1.631734      1.726415     -0.233536
H      -0.184489      2.810697      0.186558
H      -1.209079     -2.251635      0.543044
