12
Extracted from Q-Chem output
O       2.040491     -0.998901     -0.373877
C       1.092800     -0.361545     -0.725659
C       0.349605      0.539678      0.510422
C      -0.528640      1.504914      0.032741
N      -0.608768     -0.358546      1.189686
C      -0.898129     -1.331942      0.364584
O      -0.428541     -1.413905     -0.805953
H       0.958571      0.069432     -1.725012
H       1.156925      0.876672      1.152751
H      -1.363296      1.182964     -0.581115
H      -0.449846      2.566042      0.253388
H      -1.562269     -2.118500      0.729474
