15
Extracted from Q-Chem output
C      -2.486590      0.178241      0.157701
C      -1.296055      0.230451     -0.787810
N      -0.079721     -0.154035     -0.102416
C       2.347993     -1.002718      0.866917
C       3.077733     -0.354405      0.056041
N       2.019718      0.446643      0.740810
C       0.843842      0.691490     -0.001453
H      -3.412437      0.408182     -0.372974
H      -2.576885     -0.814323      0.601341
H      -2.366205      0.899895      0.967883
H      -1.214234      1.232108     -1.235595
H      -1.452702     -0.478837     -1.605363
H       2.019523     -1.842508      1.446603
H       3.884028     -0.175934     -0.629157
H       0.792940      1.706832     -0.413304
