17
Extracted from Q-Chem output
C       2.282032      0.422235      0.155909
C       0.905540     -0.001835     -0.323923
C      -0.040570     -0.642281      0.701462
C      -1.375126     -0.647822     -0.039434
O      -2.528892     -0.739154      0.763917
C      -1.261926      0.624690     -0.893181
C       0.152096      0.930444     -1.191760
H       2.836106     -0.419778      0.575202
H       2.188854      1.181964      0.934860
H       2.855229      0.851979     -0.665212
H       1.038221     -0.739342     -1.154284
H      -0.112070      0.001918      1.587173
H       0.274862     -1.629620      1.039430
H      -2.522514     -0.017103      1.396539
H      -1.965016      0.731244     -1.719590
H      -1.450071      1.503377     -0.239031
H      -1.427436     -1.519114     -0.699164
