17
Extracted from Q-Chem output
C       2.010668      0.599939     -0.078056
C       0.927882     -0.437734     -0.350570
C       0.014015     -0.819632      0.842824
C      -1.262296     -0.458472      0.109019
O      -2.497182     -0.872940      0.574324
C      -1.041215      0.911249     -0.464907
C      -0.129017      0.085697     -1.355263
H       2.746194      0.201865      0.623104
H       1.606793      1.517662      0.353481
H       2.532888      0.863573     -0.999554
H       1.407284     -1.325641     -0.765719
H       0.151280     -0.241397      1.760671
H       0.074523     -1.879645      1.088145
H      -3.110454     -0.137323      0.541065
H      -1.898470      1.332460     -0.987334
H      -0.587925      1.625467      0.219180
H      -1.074472     -1.053224     -0.923173
