16
Extracted from Q-Chem output
C      -1.298056      0.405186     -1.187720
C      -0.824465      0.003075      0.211377
C      -0.385439     -1.451866      0.273724
C       0.220549      0.948987      0.733817
C       1.551085      0.636988      0.927636
C       2.590326     -0.067786      1.254746
H      -2.132752     -0.222921     -1.505032
H      -0.488905      0.283479     -1.911800
H      -1.627025      1.445877     -1.217582
H      -1.673211      0.140656      0.896765
H      -0.023969     -1.717982      1.267638
H      -1.219185     -2.110234      0.023190
H       0.423075     -1.646506     -0.434590
H       1.633370      1.516027      0.162305
H      -0.084598      1.981181      0.885076
H       3.462827     -0.087973      0.605469
