11
Extracted from Q-Chem output
N      -1.218216      1.855189     -0.056516
C      -0.574168      0.735597     -0.028591
C      -0.854291     -0.651881     -0.078022
N       0.349580     -1.325320      0.005557
C       1.357682     -0.484943      0.100369
N       0.838179      0.750381      0.081711
H      -2.213257      1.688600     -0.138178
H       0.452359     -2.323702     -0.004684
H      -1.789744     -1.173128     -0.155223
H       2.397312     -0.746810      0.177317
H       1.350022      1.612656      0.138599
