11
Extracted from Q-Chem output
N      -1.230333      1.747411      0.111297
C      -0.543052      0.670541      0.018598
C      -0.781388     -0.734458     -0.150337
N       0.498357     -1.425564     -0.279047
C       1.413984     -0.505457     -0.066171
N       0.866047      0.710712      0.077827
H      -2.220246      1.547201      0.038331
H      -0.115186     -1.712439      0.640971
H      -1.658677     -1.217157     -0.546941
H       2.471481     -0.702053      0.015626
H       1.362192      1.581749      0.167666
