17
Extracted from Q-Chem output
C       2.136874      0.333110     -0.941875
N       1.670376     -0.096327      0.350090
C       0.453814     -0.437202      0.728600
O       0.592475     -1.162970      1.794802
N      -0.753138     -0.168050      0.202513
C      -1.938608     -0.789481      0.755565
C      -0.983526      0.918066     -0.724067
H       1.552538     -0.092952     -1.764898
H       2.143245      1.423714     -1.052082
H       3.166062     -0.004936     -1.064354
H       1.767790     -0.890834      1.423270
H      -2.487232     -0.094618      1.399838
H      -1.653925     -1.658862      1.340639
H      -2.599273     -1.099544     -0.058208
H      -0.067461      1.470068     -0.906094
H      -1.372227      0.549389     -1.677558
H      -1.716563      1.612683     -0.302374
