14
Extracted from Q-Chem output
C      -1.183302      0.462988     -1.001017
C      -0.044488      0.314423     -0.007607
O      -0.062883      1.410913      0.920124
C      -0.022908     -0.941826      0.836995
C       1.297278     -0.047947     -0.634483
O       1.430730     -1.134619      0.787530
H      -2.132806      0.605315     -0.481376
H      -1.245916     -0.408287     -1.652133
H      -1.011339      1.335915     -1.635974
H       0.214987      2.201192      0.452789
H      -0.327777     -0.804797      1.872187
H      -0.528910     -1.790540      0.380325
H       2.049498      0.694631     -0.332871
H       1.641440     -1.977043      0.378191
