14
Extracted from Q-Chem output
C      -1.054325      0.394324     -1.053047
C      -0.043610      0.432050      0.070617
O       0.080349      1.707836      0.655614
C      -0.041502     -0.667171      1.008489
C       1.384373     -0.020845     -0.309518
O       1.398944     -1.527321      0.162292
H      -2.066886      0.618782     -0.697887
H      -1.070852     -0.592680     -1.518379
H      -0.766135      1.118867     -1.814311
H      -0.795158      2.093433      0.725735
H       0.380013     -0.475197      1.985764
H      -0.668980     -1.547467      0.917938
H       2.100413      0.424667      0.384720
H       1.236958     -2.038963     -0.635347
