16
Extracted from Q-Chem output
C      -0.902211     -1.097468     -0.113135
C      -0.041346      0.148480     -0.015892
C      -0.882007      1.410039      0.020977
C       0.939186      0.090315      1.140747
C       1.582498     -0.570421     -1.718579
O       0.734996      0.290221     -1.290604
H      -1.563395     -1.041959     -0.978991
H      -1.515394     -1.189539      0.784551
H      -0.292863     -1.998967     -0.193721
H      -1.533329      1.460729     -0.852149
H      -0.245533      2.295530      0.026447
H      -1.501740      1.422824      0.919058
H       1.581618     -0.789192      1.075395
H       0.391913      0.033203      2.082868
H       1.628128     -1.417980     -0.979414
H       1.565367      0.983302      1.159646
