10
Extracted from Q-Chem output
O      -1.240370      0.302088      0.856574
C      -1.198018      0.233745     -0.415880
C       0.472567     -0.194395     -1.259670
O       0.417318     -0.230919     -2.431561
C       1.284139     -0.338891     -0.155986
C       1.165335     -0.256159      1.105066
H      -0.044251      0.036997      1.284338
H      -1.255221      1.172491     -0.982477
H      -1.676386     -0.628118     -0.899995
H       1.841671     -0.381561      1.934652
