15
Extracted from Q-Chem output
C       1.706980     -0.391688     -0.870887
C       0.439555     -0.546487     -0.029013
C      -0.422358      0.722852     -0.065144
N      -1.605083      0.624260      0.784679
C      -1.852471      1.220780      1.916709
C      -0.351316     -1.694857     -0.485092
N      -0.993040     -2.569261     -0.859144
H       1.459056     -0.189165     -1.913816
H       2.305707      0.436483     -0.490007
H       2.310035     -1.298012     -0.835318
H       0.710557     -0.742567      1.012575
H      -0.727235      0.929276     -1.094787
H       0.169736      1.565141      0.293620
H      -2.310661     -0.016014      0.437724
H      -0.973931      1.866472      2.126686
