10
Extracted from Q-Chem output
N      -0.562650      1.460957     -0.179883
C      -0.753126      0.312469      0.071877
O       0.631661     -0.759885      0.064599
C       1.706083     -0.174805     -0.216509
O       1.830879      1.054646     -0.474486
C      -1.890464     -0.596241      0.423448
O      -1.806800     -1.763329      0.641673
H       0.766757      1.480648     -0.390857
H       2.616056     -0.787095     -0.238927
H      -2.840630     -0.035037      0.455215
