19
Extracted from Q-Chem output
C      -1.910778     -1.020717     -0.605400
C      -0.837344     -0.062294     -0.071888
C      -1.459035      1.091413      0.702797
C       0.009974     -0.938006      0.834190
O       1.075851     -1.531607      0.097974
C       1.773670     -0.472804      0.685657
C       2.309253      0.595008     -0.223865
H      -2.582605     -0.483856     -1.278149
H      -1.463092     -1.848242     -1.157664
H      -2.500787     -1.436434      0.213700
H      -0.284807      0.314954     -0.939432
H      -1.979902      0.717820      1.586805
H      -2.176537      1.635349      0.085033
H      -0.701517      1.805491      1.037271
H       0.931753     -0.085607      1.477476
H       2.489234     -0.847447      1.421268
H       1.527252      1.073380     -0.810159
H       3.022873      0.147924     -0.918078
H       2.827935      1.356928      0.359897
