9
Extracted from Q-Chem output
C      -1.128273      0.004500      0.029907
C       0.337458      0.256385      0.011317
O       0.845949      1.431674      0.089656
N       1.327527     -0.584217     -0.079643
H      -1.546559      0.409499      0.951396
H      -1.360552     -1.056004     -0.041131
H      -1.590616      0.534978     -0.802602
H       1.863402      0.615266     -0.000403
H       1.238571     -1.584839     -0.156122
