12
Extracted from Q-Chem output
C      -1.788436      0.157918     -0.022213
C      -0.348417      0.318476     -0.235745
O       0.033063      1.368683     -0.875671
C       0.610402     -0.748246      0.152922
O       0.132865     -1.901762      0.161314
C       1.854261     -0.248462      0.478623
H      -2.330617      1.090541     -0.158228
H      -2.124107     -0.587001     -0.751332
H      -1.958289     -0.296503      0.953240
H       2.628769     -0.913151      0.835234
H       0.999722      1.298986     -0.999596
H       2.065011      0.814254      0.516013
