11
Extracted from Q-Chem output
C      -0.930474     -0.783234      0.637072
C      -0.500462      0.531590      0.001118
C       0.941424      0.491646     -0.477747
C       1.012251      0.670505     -1.772797
C       2.818740      0.082636      1.176560
N       1.967065      0.275513      0.401362
H      -0.294171     -1.035603      1.486343
H      -0.877982     -1.599787     -0.083785
H      -1.957680     -0.705609      0.994914
H      -0.584263      1.369600      0.697654
H      -1.137477      0.773492     -0.856165
