11
Extracted from Q-Chem output
C      -1.105788     -0.821160      0.584142
C      -0.635627      0.544929      0.088521
C       0.763603      0.553196     -0.334853
C       1.808422      0.641790     -1.059692
C       3.137144      0.246474      0.084806
N       2.040815      0.201314      0.619267
H      -0.518902     -1.141958      1.445203
H      -1.003810     -1.574535     -0.197017
H      -2.152450     -0.770334      0.884259
H      -0.776332      1.308716      0.857558
H      -1.210621      0.865202     -0.784087
