13
smiles: [H:8][H:11].[O:1]([C@@:2]1([H:7])[C:3]([H:9])=[C:4]([H:10])[C:5]1([H:12])[H:13])[H:6]
O        0.97099300      -1.08066400      -0.54461900
C        0.41444300      -0.18259400       0.38630000
C        1.08290400       1.16452700       0.58958100
C        0.02231300       1.84465400       0.16307500
C       -0.78493400       0.61589500      -0.19148600
H        1.72725300      -1.51327700      -0.14491300
H        0.17073800      -0.69621400       1.32439400
H       -1.07454800      -2.59905000      -0.84924600
H        2.05149400       1.45280700       0.97957400
H       -0.20769900       2.90160100       0.10450600
H       -1.72117800      -2.96818400      -0.84636400
H       -0.91240600       0.44138100      -1.26037900
H       -1.74328000       0.48426700       0.31573900
