12
Extracted from Q-Chem output
O       1.960904     -0.553616     -0.319335
C       1.457586     -0.417870      1.001448
C       0.829339      0.275322     -0.114873
C      -0.455457     -0.208857     -0.722331
C      -1.680325      0.459311     -0.161799
O      -1.665092      1.310505      0.684074
H       2.091554      0.135030      1.687283
H       1.025783      1.338704     -0.224058
H      -0.561770     -1.290708     -0.587585
H      -0.456444     -0.047477     -1.807052
H       0.986492     -1.307411      1.411503
H      -2.641980      0.109607     -0.591726
