12
Extracted from Q-Chem output
O       2.023173     -0.993318      0.159594
C       1.154799     -0.320449      0.846754
C       0.456528      0.634557     -0.144716
C      -0.458104     -0.251368     -0.991003
C      -1.452315      0.180762      0.006451
O      -0.840424      1.173228      0.509341
H       1.508400      0.226343      1.751661
H       1.041256      1.448014     -0.561406
H      -0.152143     -1.295280     -1.042549
H      -0.704563      0.136814     -1.983462
H       0.221724     -0.907630      1.216875
H      -2.464203     -0.080330      0.304820
