11
Extracted from Q-Chem output
C      -1.674916     -0.117981     -0.044384
C      -0.186998     -0.065260      0.014075
C       0.694940      1.005399     -0.206555
N       1.938616      0.574859     -0.056612
N       1.783761     -0.693819      0.238493
N       0.545496     -1.134735      0.297685
H      -2.030837     -0.051857     -1.074320
H      -2.121011      0.705090      0.515052
H      -2.029540     -1.057174      0.377506
H       0.488219      2.033282     -0.457082
H       2.566969     -1.297213      0.415668
