11
Extracted from Q-Chem output
C      -1.661703     -0.086390     -0.123648
C      -0.181773     -0.148988      0.027426
C       0.742314      0.876016      0.158634
N       1.942189      0.337109      0.381832
N       1.735555     -1.066744      0.322014
N       0.478230     -1.311317      0.065113
H      -2.004560     -0.880821     -0.785119
H      -1.975951      0.874625     -0.529480
H      -2.149657     -0.221638      0.843289
H       0.603306      1.944855      0.122509
H       2.446748     -0.416117     -0.463043
