10
Extracted from Q-Chem output
C       1.329600      1.927371      0.138988
C       0.389544     -1.573725      0.333254
N       0.134761     -1.553942     -0.884596
C      -0.806114     -0.805524      0.060345
C      -0.810296      0.672446      0.041838
N       0.266178      1.342479      0.015361
H       1.834636      2.196182     -0.794181
H       1.145446     -1.949199      1.009749
H      -1.782866     -1.257386      0.197381
H      -1.749994      1.211363      0.038805
