10
Extracted from Q-Chem output
C       1.209668      1.034703      0.098595
C       0.639265     -1.029701      0.306402
N       0.340999     -1.164725     -0.919146
C      -0.757648     -0.660570     -0.038249
C      -1.044102      0.788153      0.039482
N       0.021449      1.483988      0.007944
H       1.868047      1.222689     -0.755894
H       1.342183     -1.505423      0.977571
H      -1.590343     -1.344494      0.081019
H      -2.023841      1.211808      0.208685
