11
Extracted from Q-Chem output
O       2.794176     -1.440052      0.609041
C       1.783286     -0.889672      0.747591
C       0.638780     -0.275660      0.899465
C      -0.860577      0.918728     -0.748474
C      -0.504668     -0.405128     -0.078864
H      -0.016058      1.303415     -1.322655
H       0.555263      0.361227      1.771432
H      -1.127493      1.672961     -0.005100
H      -1.709636      0.798309     -1.424311
H      -1.379677     -0.798362      0.446574
H      -0.249488     -1.147291     -0.838435
