16
Extracted from Q-Chem output
C       2.142808     -1.169889      1.090430
C       1.048740     -0.293191      0.576699
O       1.530859      0.864565      0.073214
C      -1.695484      1.208157     -1.952602
N      -0.991469      1.153081     -0.914058
C      -1.386381      0.251134      0.158645
C      -0.246742     -0.618770      0.617627
H       1.747249     -2.098460      1.497794
H       2.698909     -0.646965      1.871491
H       2.846308     -1.400541      0.287947
H       0.792452      1.331897     -0.360989
H      -2.598954      0.602485     -2.087459
H      -1.410546      1.880621     -2.758837
H      -2.240601     -0.370854     -0.140757
H      -1.726995      0.887290      0.985342
H      -0.514266     -1.574451      1.048295
