16
Extracted from Q-Chem output
C       1.640614     -1.063633      0.158037
C       0.631082      0.056860      0.128296
O       1.360667      1.248325      0.077430
C      -0.466924      0.428134     -1.336435
N      -1.241648      1.203203     -0.548177
C      -1.830346      0.263645      0.375538
C      -0.528307     -0.099753      0.975533
H       1.152014     -2.034778      0.232774
H       2.333129     -0.931075      0.991883
H       2.229211     -1.042746     -0.760618
H       0.708271      1.961046      0.105613
H      -0.860092     -0.542775     -1.668415
H       0.174308      0.929729     -2.055865
H      -2.362641     -0.579090     -0.104772
H      -2.503579      0.737501      1.095171
H      -0.442799     -0.559360      1.960219
