14
Extracted from Q-Chem output
O       1.548314      0.610412     -0.749327
C       1.365373      0.076258      0.369448
C      -0.741150      0.906532      0.812015
C      -0.835070     -0.369027      0.088378
O      -0.665462     -0.090659     -1.515853
C       0.436317     -1.123802      0.374483
H       0.370677      0.269661     -1.419517
H       2.037164      0.311346      1.196614
H      -0.328817      1.759926      0.289746
H      -1.597000      1.163158      1.430879
H      -1.756599     -0.945176      0.176154
H      -1.210954      0.694256     -1.662360
H       0.737812     -1.896720     -0.344269
H       0.355717     -1.554240      1.371292
