16
Extracted from Q-Chem output
C       2.089774     -0.058308      0.061507
C       0.673913      0.248176      0.530031
C      -0.382415     -0.190713     -0.474502
O      -0.347745     -1.590990     -0.712521
C      -1.807940      0.024370      0.007349
C      -2.071480      1.766346     -0.044003
N      -2.182055      1.453298      1.093806
H       2.297767      0.409387     -0.904910
H       2.824833      0.318587      0.773123
H       2.260929     -1.133104     -0.034258
H       0.565391      1.320536      0.703388
H       0.475095     -0.250702      1.483601
H      -0.242951      0.354966     -1.415797
H       0.424860     -1.797327     -1.240671
H      -1.996091     -0.581296      0.891960
H      -2.551816     -0.222936     -0.742844
