12
Extracted from Q-Chem output
C      -1.182629     -0.706853     -0.520334
C      -0.126198      0.136425      0.187020
C       1.192821     -0.474638      0.247043
C       2.262625     -1.005891      0.315729
C       0.090796      1.511045     -0.925488
C      -0.199237      1.951347      0.210525
H      -0.878753     -0.914929     -1.543628
H      -1.316295     -1.648636      0.016459
H      -2.130743     -0.170721     -0.538727
H      -0.462812      0.246057      1.228503
H       3.218588     -1.471308      0.361891
H      -0.414805      2.472231      1.120563
