13
Extracted from Q-Chem output
C       1.203677     -0.561033      1.755251
C       0.865238      0.443236      0.950068
C      -0.316554      1.111043     -1.147907
C      -1.025082      0.144073     -1.737713
C      -0.951502     -0.672546     -0.462398
N      -0.229850      0.484170      0.113358
H       2.054127     -0.463162      2.413594
H       0.639277     -1.484764      1.792612
H       1.443521      1.362675      0.937025
H       0.077242      2.085615     -1.406208
H      -1.535522      0.028116     -2.678020
H      -0.330569     -1.568859     -0.510967
H      -1.892819     -0.887088      0.046329
