13
Extracted from Q-Chem output
C       1.445935     -0.614005      0.083824
C       0.672738      0.188367      0.947893
C      -0.207800      1.142599     -0.119565
C      -0.493073      0.136494     -1.070032
C      -1.370336     -0.525639     -0.057027
N      -0.794927      0.379457      0.981724
H       2.116333     -1.348016      0.532116
H       1.707227     -0.323734     -0.915568
H       1.070237      0.475329      1.922195
H       0.015228      2.198837     -0.126291
H      -0.445443      0.098798     -2.149171
H      -1.303951     -1.595399      0.134114
H      -2.413311     -0.210655     -0.150425
