14
Extracted from Q-Chem output
C       1.871869     -0.373889      0.207538
C       0.529354      0.090951     -0.308333
O      -0.347312     -1.019239     -0.395501
C      -1.618362     -0.591161     -0.518842
C      -1.489202      1.017299      0.831892
C      -0.199171      1.078403      0.586392
H       2.305412     -1.114330     -0.465022
H       2.557570      0.471736      0.275328
H       1.763021     -0.816333      1.198338
H       0.640715      0.534012     -1.310017
H      -1.837126      0.019738     -1.399289
H      -2.325207     -1.408167     -0.372009
H      -2.215430      0.156578      0.564132
H       0.379840      1.879876      1.033939
