16
smiles: [H:8][H:12].[O:1]([C@:2]1([H:9])[C@:3]2([H:10])[C@@:4]1([H:11])[C:5]([H:13])([H:14])[C:6]2([H:15])[H:16])[H:7]
O        1.83087200      -0.65840400       0.94137900
C        0.75883500       0.22266500       0.80180500
C        0.32100200       0.40949700      -0.60592700
C       -0.54874200      -0.36980200       0.37879500
C       -1.61627900       0.71576200       0.31779700
C       -0.73121200       1.50754600      -0.68817900
H        1.69734700      -1.17481600       1.73823100
H        1.68628900      -2.64901000      -0.77483900
H        0.77461300       1.07626700       1.48227600
H        0.93661000       0.03342300      -1.41131800
H       -0.71101600      -1.43813900       0.43838000
H        1.63635700      -3.28318700      -1.16175200
H       -2.54732100       0.37404800      -0.13228000
H       -1.84686700       1.21016200       1.26493000
H       -0.40479700       2.50362700      -0.37959900
H       -1.19390300       1.57984200      -1.67134500
