16
Extracted from Q-Chem output
O       2.699509     -0.031793     -0.024503
C       1.447364     -0.098284      0.487152
C       0.344544      0.128700     -0.345635
C      -0.900188     -0.727216     -0.049109
C      -1.915441      0.356426     -0.427991
C      -0.760851      1.272753     -0.085590
H       3.342387     -0.252110      0.651214
H       0.917681     -2.061744      0.279692
H       1.351497     -0.087181      1.568118
H       0.618089      0.133064     -1.401576
H      -0.965143     -0.952307      1.021530
H       0.164247     -2.125616     -0.043834
H      -2.177204      0.361913     -1.486608
H      -2.810867      0.437299      0.182514
H      -0.760384      1.588816      0.954690
H      -0.553451      2.116760     -0.741714
