11
Extracted from Q-Chem output
N      -1.866337     -0.442799      0.295735
C      -0.565548     -0.363061     -0.012047
N       0.316915     -1.302653     -0.111918
N       1.345741     -0.248922     -0.475410
C       1.590289      0.858964      0.458004
C       0.328046      0.806211     -0.338649
H      -2.367559      0.394881      0.524632
H      -2.238320     -1.315008      0.628115
H       1.873991     -0.413541     -1.318741
H       1.483444      0.487063      1.478120
H       0.104023      1.501899     -1.139365
