16
Extracted from Q-Chem output
C       2.202530      0.079016     -0.593277
N       0.963561      0.179441      0.153218
C      -0.953518     -1.071306      1.073993
C      -1.717091      0.013747      1.139829
C      -1.390806      1.016722      0.058288
C      -0.222615      0.372632     -0.664223
C       0.040498     -0.945085     -0.027396
H       2.601627      1.081318     -0.759700
H       2.088665     -0.413746     -1.570912
H       2.929796     -0.485737     -0.007563
H      -1.005179     -1.920846      1.742150
H      -2.474830      0.195151      1.892112
H      -1.115405      1.989359      0.475179
H      -2.240584      1.175700     -0.612466
H      -0.084018      0.522002     -1.729736
H       0.388056     -1.805127     -0.589272
