12
Extracted from Q-Chem output
C      -1.678908      0.464616      0.487842
C      -0.671921     -0.078478     -0.486917
O      -0.839902     -0.062465     -1.679669
C       0.613266     -0.650091      0.096084
C       1.825832      0.027062     -0.504615
O       2.759098      0.404127      0.145210
H      -1.965715     -0.314172      1.198588
H      -1.225694      1.272959      1.067532
H      -2.556145      0.831444     -0.039714
H       0.652460     -1.702229     -0.206070
H       0.662949     -0.590194      1.182459
H       1.791207      0.154324     -1.602906
