12
Extracted from Q-Chem output
O       1.771837      1.738444      1.067583
C       1.754203      0.607376      0.672930
C       0.600454      0.033322     -0.077820
O       0.866112     -0.981014     -0.982776
N       0.094169     -1.304747      0.207701
C      -1.277342     -0.801163     -0.173668
C      -0.757803      0.637402     -0.356704
H       2.581953     -0.106194      0.844175
H      -1.944547     -0.936724      0.675398
H      -1.665031     -1.317339     -1.049057
H      -0.863300      1.111521     -1.329888
H      -1.082002      1.316659      0.428624
