12
Extracted from Q-Chem output
O       0.959815      1.015628      1.764920
C       1.498261      0.441988      0.863312
C       0.770504     -0.153359     -0.347009
O       1.452549     -0.556592     -1.350886
N      -0.059807     -1.360817     -0.062947
C      -1.305186     -0.658839      0.042738
C      -0.658552      0.529363     -0.636243
H       2.596103      0.299560      0.800526
H      -1.476244     -0.461440      1.112959
H      -2.174459     -1.154041     -0.388460
H      -0.792702      0.564484     -1.710339
H      -0.756616      1.488246     -0.135006
