16
smiles: [C:1]([O:3][H:11])([H:7])([H:8])[H:9].[C:2]([C@@:4]([C:5]([H:13])([H:14])[H:15])([O:6][H:16])[H:12])[H:10]
C        1.77925300       0.59537300       0.69425700
C       -0.51197500      -1.28106800      -0.89820400
O        0.97127500      -0.53667000       0.93565700
C       -0.89932800      -0.03550100      -0.64112900
C       -1.75235600       0.38251000       0.50907400
O       -0.56086000       1.03658900      -1.40791800
H        1.10872500       1.42143700       0.46024200
H        2.45359300       0.44932000      -0.15725200
H        2.37449400       0.87451200       1.57119600
H       -0.81136000      -2.09166900      -0.25085200
H        1.53767600      -1.28179200       1.13753600
H        0.11090800      -1.52156700      -1.75230200
H       -2.02000700      -0.47175300       1.12720200
H       -1.22106800       1.11429200       1.12071600
H       -2.66391900       0.85910400       0.14305300
H       -0.01112700       0.74336500      -2.13870400
