19
Extracted from Q-Chem output
C       1.949812     -1.464285     -0.423530
C       0.785803     -0.640000     -0.851390
O       1.054844      0.910587      0.535924
C      -0.055426      1.795022      0.341347
C      -1.324687      1.055129      0.704167
C      -1.618844     -0.116502     -0.228481
C      -0.483735     -1.136379     -0.248870
H       2.912479     -0.984149     -0.610393
H       1.915173     -2.326329     -1.104388
H       1.917997     -1.853031      0.604395
H       1.805340      1.257909      0.047880
H       0.080572      2.675576      0.976759
H      -0.086764      2.108667     -0.706544
H      -1.239187      0.701376      1.736980
H      -2.152180      1.769433      0.682237
H      -1.776232      0.257281     -1.244302
H      -2.546878     -0.599706      0.089317
H      -0.753911     -1.958535     -0.928968
H      -0.362583     -1.588985      0.750295
