13
Extracted from Q-Chem output
C      -1.364443      0.337097     -0.046634
C      -0.914773     -0.330755     -1.291327
O       0.589072     -0.287005     -1.228746
C       0.941043     -0.173902      0.028963
O       0.684047     -1.058568      0.989753
N       2.005382      0.577043      0.249838
H      -1.567324      1.400570     -0.166227
H      -0.290212     -0.925328      1.074143
H      -2.222114     -0.149872      0.424229
H      -1.195319     -1.383711     -1.360405
H      -1.103185      0.147981     -2.256179
H       2.421495      0.587048      1.163098
H       2.335101      1.190405     -0.472686
