16
Extracted from Q-Chem output
C       1.449227      0.867534     -0.169363
C       0.066249      1.236200      0.287996
N       1.504116     -0.415778     -0.832918
C       2.224704     -1.308548     -0.321303
C      -0.994469      0.463304      0.237852
C      -2.426336      0.313399      0.499441
C      -1.603059     -0.810923     -0.127774
H       2.138119      0.918183      0.690272
H       1.786471      1.621672     -0.888760
H      -0.031369      2.236801      0.701313
H       2.803605     -1.160343      0.600255
H       2.288886     -2.283374     -0.801946
H      -3.126002      0.843674     -0.136379
H      -2.756784      0.185407      1.524011
H      -1.389296     -1.680291      0.483183
H      -1.748838     -1.025522     -1.179561
