17
Extracted from Q-Chem output
C      -1.476102     -0.745526      0.325009
C      -1.917253      0.139994     -0.722047
C      -0.543400      0.360898     -0.419668
C       0.608202     -0.242252     -1.276572
C       1.040266     -0.777363     -0.008719
C       1.274446      0.308718      1.001108
C       0.154760      1.281228      0.565361
H      -1.354194     -1.813728      0.142485
H      -1.571012     -0.483875      1.373975
H      -2.209145     -0.256551     -1.688149
H       0.519208      2.179827      0.060518
H       0.277069     -0.975771     -2.006740
H       1.189764      0.553280     -1.745435
H       1.187999     -1.830803      0.181953
H       2.277254      0.746005      0.942910
H       1.129847     -0.048737      2.021571
H      -0.497052      1.593578      1.379958
