15
Extracted from Q-Chem output
C       2.351922     -0.655472      0.136099
C       0.910724     -0.293008      0.018006
C      -0.136904     -1.180136     -0.227316
C      -1.220480     -0.318232     -0.192065
N      -2.501984     -0.659632     -0.417626
C      -0.861091      1.123165      0.076871
N       0.576238      1.031120      0.109370
H       2.916842      0.046797      0.753546
H       2.436093     -1.660099      0.544220
H       2.800311     -0.664757     -0.860581
H      -1.211661      1.786168     -0.718874
H      -3.267939     -0.028146     -0.281653
H      -2.693872     -1.632947     -0.577151
H      -1.262936      1.479499      1.030475
H       1.139043      1.698153      0.607782
