15
Extracted from Q-Chem output
C       2.349873     -0.642289      0.134664
C       0.899540     -0.297351      0.037038
C      -0.154657     -1.063019     -0.384879
C      -1.272551     -0.143526     -0.262160
N      -2.635996     -0.461189     -0.375537
C      -0.809521      1.140948      0.233108
N       0.505021      0.995501      0.425472
H       2.738918     -0.495000      1.146477
H       2.470193     -1.690243     -0.129907
H       2.961766     -0.046520     -0.549654
H      -0.989576      0.709739     -1.122583
H      -3.141916     -0.331385      0.486926
H      -2.719098     -1.420184     -0.682578
H      -1.355189      2.049934      0.440939
H       1.127499      1.767058      0.603779
