12
Extracted from Q-Chem output
C       1.394746     -0.082806      0.102661
C      -0.043748      0.155794     -0.348479
C      -1.779005     -1.417488      0.530360
N      -1.012145     -0.371468      0.628539
C      -0.293065      1.587632     -0.570833
N      -0.473901      2.709879     -0.720217
H       2.096580      0.309903     -0.632583
H       1.561747     -1.153166      0.219933
H       1.586024      0.410354      1.056631
H      -0.238206     -0.367971     -1.286315
H      -1.606429     -1.845946     -0.477533
H      -1.041207      0.155053      1.494660
