15
Extracted from Q-Chem output
O      -2.472195      0.001798      0.737399
C      -1.365333     -0.593511      0.291225
C      -0.779071     -0.068223     -1.004036
C       0.637783      0.136956     -0.531223
C       1.798846     -0.558314     -1.071353
O       1.587077      0.827358     -1.317144
C       0.413228      0.427693      0.913987
H      -2.669258      0.810099      0.242364
H      -0.475631     -0.687816      1.116956
H      -1.198094      0.916875     -1.267134
H      -0.927837     -0.736885     -1.852558
H       2.637313     -0.790948     -0.420682
H       1.680209     -1.206311     -1.935475
H      -0.031524      1.402224      1.107673
H       1.194782      0.176060      1.628712
