9
Extracted from Q-Chem output
C       2.629813     -0.103153      0.461344
C       1.479659     -0.216779      0.122058
C       0.157758     -0.385659     -0.301244
C      -2.015008      0.439953     -0.035571
O      -0.752990      0.406105      0.200172
H       3.644019      0.003182      0.764200
H      -0.153866     -1.131618     -1.020157
H      -2.451486     -0.258375     -0.738226
H      -2.564886      1.190135      0.506016
