15
Extracted from Q-Chem output
C       1.074395      1.971697     -0.109565
C       0.761044      0.660941      0.547020
O       0.360781      0.873207      1.862257
C      -0.520298     -1.495066     -0.769361
N      -1.774571     -1.460874     -0.028450
C       0.440058     -0.564085     -0.129146
N       1.631038     -0.525615      0.277278
H       1.837752      2.495843      0.468227
H       0.185435      2.603311     -0.147609
H       1.444330      1.813987     -1.121417
H       0.071508      0.039385      2.240749
H      -0.100671     -2.502483     -0.729113
H      -0.608660     -1.216012     -1.829709
H      -2.424422     -2.144262     -0.390141
H      -2.210090     -0.551017     -0.102351
