15
Extracted from Q-Chem output
C       1.197834      2.114985      0.012261
C       0.729471      0.776817      0.497873
O      -0.085751      0.655503      1.392843
C      -0.564167     -1.441819     -0.620340
N      -1.749272     -1.143338      0.272918
C       1.355319     -0.371045     -0.179443
N       2.353225     -0.880581     -0.514806
H       2.284995      2.159755      0.101689
H       0.726281      2.915206      0.578504
H       0.967321      2.210337     -1.050988
H      -1.365380     -0.635376      1.084322
H      -0.171423     -2.409687     -0.313698
H      -0.924118     -1.495213     -1.648477
H      -2.295005     -1.945461      0.586259
H      -2.382546     -0.499820     -0.190573
