14
Extracted from Q-Chem output
O       1.515313      0.795796      1.407355
C       1.054892      0.100326      0.293046
C       0.635184      0.860672     -0.908780
C      -0.430709      0.313379      0.014530
C      -1.405398     -0.789611     -0.445910
C      -0.864737     -1.643896      0.606965
H       2.449215      0.978347      1.284988
H       0.759736      1.935496     -0.883767
H       0.744636      0.394607     -1.879327
H      -0.866272      1.034291      0.692312
H      -2.422537     -0.398414     -0.366500
H      -1.196057     -1.113625     -1.465600
H      -1.325597     -1.306319      1.554211
H       1.470145     -0.889013      0.155861
