14
Extracted from Q-Chem output
C      -0.808529     -1.387993      0.803578
C       0.074782     -0.750183     -0.241944
C      -0.818851      1.001283     -0.679265
O      -0.051696      2.013796     -0.787421
C       1.257892     -0.155636      0.076254
C       2.000211      0.850611      0.141520
H      -0.775702     -0.829708      1.739423
H      -0.496705     -2.414404      1.006028
H      -1.843413     -1.422269      0.456354
H       0.071295     -1.255763     -1.205729
H      -1.247771      0.591547     -1.600822
H      -1.479691      0.948694      0.196275
H       1.107935      1.676284     -0.271755
H       3.010243      1.133743      0.367502
