9
Extracted from Q-Chem output
O       0.129676      1.786956     -0.662169
C       0.195431      0.710306     -0.149690
C       1.266039     -0.141851      0.173509
O      -0.499448     -1.029088     -0.840656
C      -1.153419     -0.261305     -0.003895
H       1.080988     -1.030680      0.752258
H       2.280697      0.250757      0.142575
H      -1.944423      0.373049     -0.411267
H      -1.355141     -0.651260      1.000914
