11
Extracted from Q-Chem output
C       0.517731      0.960133      0.189720
C       0.927402     -0.482037     -0.105120
O      -0.205559     -0.996181     -0.776129
C      -1.289165     -0.403616     -0.123459
O      -0.901645      0.908719      0.214095
H       0.836503      1.645336     -0.600258
H       0.896337      1.319052      1.149415
H       1.792538     -0.571487     -0.759543
H       1.111583     -1.042214      0.820625
H      -2.142998     -0.376386     -0.801779
H      -1.542728     -0.961319      0.792432
