11
Extracted from Q-Chem output
C       0.840437      1.015581     -0.036444
C       0.959027     -0.372814     -0.271030
O      -0.075187     -1.004846     -0.806454
C      -1.382108     -0.462255     -0.021455
O      -1.020963      0.273053      0.980522
H       0.059162      1.635907     -0.446333
H       1.607096      1.500091      0.558195
H       1.931700     -0.859296     -0.303671
H       0.708989     -0.251676      0.903813
H      -1.917875      0.031906     -0.848548
H      -1.844043     -1.422947      0.234783
