17
Extracted from Q-Chem output
C      -2.042118      0.001420      0.716559
C      -0.573706      0.342587      0.830989
C       0.577489     -1.169546     -0.884811
C       0.401493     -0.784971      0.553536
C       1.508457     -0.179817     -0.254104
C       1.126857      1.273871     -0.422035
O      -0.259113      1.337068     -0.137731
H      -2.318627     -0.735053      1.473185
H      -2.262131     -0.411491     -0.269081
H      -2.653042      0.892990      0.862504
H      -0.365477      0.734528      1.838885
H       0.965444     -2.158780     -1.087580
H      -0.141287     -0.803585     -1.608639
H       0.594614     -1.510811      1.332224
H       2.545851     -0.437068     -0.087504
H       1.701815      1.896521      0.277350
H       1.270997      1.662213     -1.432564
