19
Extracted from Q-Chem output
C      -2.609674      0.296365     -0.271033
C      -1.220532      0.566445      0.290113
C      -0.326390     -0.668996      0.262402
C       1.068349     -0.388430      0.800199
C       2.812012     -0.803257      0.124753
C       2.020509      0.348518     -0.222616
O       1.529337      0.443040     -1.537772
H      -2.554736     -0.033466     -1.311081
H      -3.117599     -0.486794      0.296863
H      -3.234231      1.190457     -0.236383
H      -1.302275      0.928980      1.320145
H      -0.750525      1.376886     -0.276091
H      -0.248539     -1.051135     -0.757129
H      -0.787413     -1.457478      0.864202
H       1.084813      0.138175      1.751867
H       2.569818     -1.571348     -0.631083
H       1.574419     -1.364022      1.065459
H       2.347030      1.317712      0.152595
H       1.099755      1.293090     -1.653628
