14
Extracted from Q-Chem output
C      -1.977483      0.263548      0.202717
C      -0.497111      0.128357      0.083952
C       0.490918      1.042696      0.476834
C       1.743264      0.528073      0.237920
N       1.567795     -0.683473     -0.360555
C       0.111868     -1.122122     -0.258661
O      -0.235495     -2.280240     -0.383122
H      -2.280200      1.310575      0.219746
H      -2.337264     -0.213083      1.118414
H      -2.476427     -0.230867     -0.631085
H       0.643651     -0.427063     -1.351923
H       0.297805      2.044035      0.831717
H       2.698118      1.027957      0.227488
H       2.280867     -1.363533     -0.575145
