15
smiles: [C:1](=[C:2]([C@@:3]1([H:12])[O:4][C@:5]1([C:6][O:7][H:15])[H:13])[H:11])([H:8])[H:9].[H:10][H:14]
C        2.02277300      -0.04300900      -0.67353000
C        1.17941300       0.37024400       0.25709400
C       -0.11513300       1.03576300      -0.02595200
O       -0.66621100       0.92345000      -1.32429200
C       -1.38679000       0.31712800      -0.23394200
C       -1.44692300      -1.16965100      -0.15374800
O       -0.87860400      -1.69863500      -1.18760100
H        2.96319400      -0.50896700      -0.41011600
H        1.80361800       0.07874100      -1.72823700
H       -1.04454500      -0.96419900       2.63353400
H        1.41960900       0.26281800       1.31046000
H       -0.20927700       2.03214900       0.40417200
H       -2.30227600       0.82802100       0.04847200
H       -0.76538000      -0.65264100       3.24947000
H       -0.53025400      -1.00639600      -1.79431000
