15
Extracted from Q-Chem output
C      -1.694285      0.283442     -0.553587
C      -1.524498     -0.152944      0.863640
C      -0.316507      0.074518     -0.010357
C       0.760731     -0.907348     -0.381806
C       1.964562      0.119981      0.192177
O       2.736436      0.611972     -0.703909
C       0.761467      1.018276      0.202342
H      -2.052086     -0.440320     -1.274035
H      -2.000988      1.304976     -0.739482
H      -1.718695      0.560173      1.653453
H      -1.733348     -1.186111      1.112699
H       0.783574     -1.842584      0.174778
H       0.925533     -1.024863     -1.446813
H       2.349933     -0.280807      1.145464
H       0.849138      2.019525     -0.221095
