14
smiles: [C:1]([C:2]#[C:3][C:4]([H:10])([H:11])[H:12])([H:7])([H:8])[H:9].[O:5]=[C:6]([H:13])[H:14]
C       -2.11919400       0.34161600      -0.84502200
C       -0.68200400       0.54215800      -0.69450200
C        0.49910400       0.70521300      -0.57272300
C        1.93714900       0.90121000      -0.42455300
O        1.40600100      -1.65130900       1.82557600
C        0.23956400      -1.54785800       1.58339700
H       -2.43126000       0.52926900      -1.87372500
H       -2.67808900       1.01598400      -0.19427400
H       -2.39705500      -0.68213000      -0.58898100
H        2.15774700       1.90809600      -0.06637000
H        2.35484800       0.18911700       0.28899600
H        2.44837700       0.76388600      -1.37880600
H       -0.41462600      -0.85099200       2.14172900
H       -0.24873700      -2.14373500       0.78852200
