13
Extracted from Q-Chem output
N      -2.128494     -0.281934      0.397893
C      -0.860178      0.058692     -0.028370
C      -0.390410      1.184198     -0.655389
C       1.033100      1.106042     -0.859062
C       1.355783     -0.089777     -0.158587
O       2.519795     -0.796960     -0.240289
N       0.194293     -0.755721      0.264658
H      -2.392841     -1.242679      0.246376
H      -2.838804      0.352810      0.073018
H      -1.018128      1.999736     -0.985242
H       1.551643      1.011772      0.419456
H       2.830247     -1.038433      0.634975
H       0.149962     -1.569351      0.852605
