17
Extracted from Q-Chem output
C      -2.177615     -0.235976      0.056159
C      -0.748788      0.071228     -0.352092
C       0.031418      0.998886      0.593077
C       1.368719      0.430568      0.285818
C       2.532783      0.275535     -0.582994
O       2.390851      0.121500      0.983747
C       0.235324     -1.104354     -0.351674
H      -2.206216     -0.689467      1.050302
H      -2.793099      0.666661      0.077868
H      -2.635750     -0.938779     -0.642554
H      -0.744645      0.522070     -1.348980
H      -0.033718      2.072756      0.410648
H      -0.210384      0.795519      1.639899
H       1.538355     -0.747830     -0.778106
H       3.111479      1.186323     -0.750305
H       0.166605     -1.704930      0.557245
H       0.153312     -1.767474     -1.220081
