19
Extracted from Q-Chem output
C       2.074471     -0.419890     -0.134152
C       0.994239      0.069700      0.822093
C      -0.363390      0.433683     -0.571625
C      -0.544126     -0.769699     -1.462822
C      -0.835602     -0.087945      1.127515
C      -1.590172      0.745865      0.162121
O      -1.795989      2.078630      0.554336
H       2.131494      0.196970     -1.029414
H       1.923807     -1.459100     -0.428699
H       3.029232     -0.377952      0.397679
H       1.192188      1.093905      1.122238
H       1.120483     -0.566023      1.708564
H      -1.081098     -0.377722     -2.332264
H       0.390238     -1.183755     -1.835804
H      -1.151802     -1.591515     -1.058177
H      -0.707194      0.414802      2.076080
H      -1.099586     -1.136855      1.190969
H      -2.506839      0.291395     -0.209918
H      -1.187034      2.600407      0.023871
