11
Extracted from Q-Chem output
C       1.223980     -0.073641      0.204969
C      -0.111760     -0.216273     -0.435179
N      -1.038428     -0.971493      0.131424
C      -0.924488      1.814621     -0.704219
N      -0.720092      1.916974      0.443398
H       1.749051      0.782928     -0.205695
H       1.143445      0.045976      1.283211
H       1.791069     -0.983219     -0.019910
H      -0.154396     -0.168226     -1.512671
H      -1.916625     -1.091545     -0.344493
H      -1.085056     -1.000183      1.137239
