16
Extracted from Q-Chem output
C       1.331446      0.706418      0.122932
C       0.290072     -0.383116      0.172777
C       0.716857     -1.589892      0.947391
C      -1.471832      1.366094     -0.139098
N      -1.251197      0.620259     -1.207326
C      -0.661866     -0.629015     -0.869049
O      -1.032163     -1.692913     -1.343764
H       2.286516      0.279401     -0.211396
H       1.514711      1.132816      1.112467
H       1.080137      1.521226     -0.554571
H       1.074299     -1.300567      1.939105
H       1.548454     -2.101681      0.445796
H      -0.094285     -2.310205      1.046101
H      -1.834590      0.913860      0.767185
H      -1.489723      2.448045     -0.234482
H      -1.429926      0.910742     -2.157281
