18
Extracted from Q-Chem output
C       1.997211      0.414346     -0.754666
C       0.867648     -0.514113     -0.867781
C       0.056568     -0.996169      1.235970
C      -0.322089     -0.188778     -0.038958
C      -0.578591      1.276935      0.335401
C      -1.586429     -0.797886     -0.651531
H       2.083425      1.047874      0.136807
H       2.954801     -0.039048     -1.010156
H       1.756016      1.086441     -1.600481
H       0.287585     -2.036189      1.001185
H       0.907438     -0.555848      1.758107
H      -0.805974     -0.979406      1.905067
H      -0.762441      1.879407     -0.557670
H       0.250943      1.727115      0.881483
H      -1.465467      1.351959      0.968585
H      -1.418635     -1.846328     -0.898279
H      -1.855211     -0.278177     -1.573783
H      -2.433576     -0.722080      0.036428
