18
Extracted from Q-Chem output
C       1.987763      0.268341     -0.595162
C       0.775942     -0.624449     -0.665334
C       0.191089     -0.911050      1.088634
C      -0.463916     -0.103264     -0.033068
C      -0.644194      1.380994      0.250409
C      -1.747494     -0.727745     -0.559038
H       2.067000      0.971700      0.242723
H       2.912520     -0.305684     -0.660793
H       1.930573      0.865777     -1.512092
H       0.997286     -1.526490      0.479940
H       0.674478     -0.321941      1.860986
H      -0.413972     -1.737745      1.451035
H      -0.853131      1.916553     -0.678898
H       0.231260      1.837576      0.709982
H      -1.491970      1.543733      0.919397
H      -1.597041     -1.786790     -0.769667
H      -2.046570     -0.244750     -1.492195
H      -2.567410     -0.616695      0.157176
