12
Extracted from Q-Chem output
O      -1.407758     -0.040026      1.335416
C      -0.855397     -0.500396      0.161618
C      -0.230958      0.442078     -0.935507
C       0.811313      1.133122     -0.065269
N       1.366935      0.209134      0.610764
C       0.622699     -0.966630      0.060768
O       0.540850     -0.707795     -1.344548
H      -1.543902     -1.211285     -0.291045
H      -0.776663      0.954914     -1.721671
H       1.043120      2.187644      0.028041
H      -0.736699      0.446944      1.825019
H       1.018978     -1.936627      0.343183
