14
Extracted from Q-Chem output
C      -1.608749      0.729092     -0.063762
C      -1.112215     -0.609230     -0.609322
C       0.309178     -0.602044     -0.979552
C       1.449635     -0.542791     -1.494953
C       1.604494     -0.341421      0.251409
O       1.900485      0.982364      0.525484
H      -1.464417      1.520306     -0.799339
H      -2.670084      0.666921      0.179651
H      -1.065793      1.013999      0.838268
H      -1.303263     -1.414611      0.105369
H      -1.655144     -0.874383     -1.520115
H       2.451281     -1.019858      0.337536
H       0.874236     -0.664130      1.000825
H       2.460495      1.304589     -0.186813
