13
Extracted from Q-Chem output
C      -0.948921      0.085772      0.993674
C       0.099455     -0.919345     -0.475430
C       0.444509     -0.127292     -1.625244
N       1.353124     -0.468262     -0.489806
C       0.733616      0.649081      0.667966
O       0.723992      1.799024      0.286706
H      -1.086213     -0.808622      1.601618
H      -1.722958      0.185360      0.232522
H      -1.067932      0.957178      1.640529
H      -0.366556     -1.849904     -0.184038
H       0.659812     -0.616561     -2.567141
H       0.111857      0.907899     -1.663063
H       1.234259      0.213057      1.531887
