12
Extracted from Q-Chem output
O      -1.628061      1.008075     -1.308000
C      -0.896787      1.445771     -0.330618
C      -0.249615      0.355344      0.470687
C      -0.095617     -1.104562     -0.007940
O       1.319117     -0.959014     -0.120845
C       1.290508      0.381736      0.391223
H      -1.640878      0.032303     -1.387395
H       1.703204      1.101068     -0.319923
H      -0.635333      0.465235      1.486060
H      -0.377145     -1.861662      0.728357
H      -0.543958     -1.390259     -0.971297
H       1.811930      0.466259      1.346942
