12
Extracted from Q-Chem output
O      -0.798561      1.089413     -1.486127
C      -0.436251      1.359529     -0.213801
C      -0.387602      0.196190      0.755031
C      -0.278575     -1.193561      0.113585
O       1.019947     -0.864605     -0.428650
C       1.032650      0.319023      0.319914
H      -0.920038      0.145850     -1.661109
H       0.847209      1.526370     -0.256924
H      -0.782936      0.330033      1.753460
H      -0.192674     -1.993359      0.849329
H      -0.996183     -1.491936     -0.658657
H       1.913026      0.563454      0.908532
