13
Extracted from Q-Chem output
C      -1.921031     -0.102924     -0.395078
C      -0.538788      0.488940     -0.160131
C       0.531817     -0.594985     -0.001888
C       1.867835     -0.049416      0.221092
C       2.954913      0.419624      0.401892
H      -1.939350     -0.716019     -1.299570
H      -2.228119     -0.736087      0.440904
H      -2.671129      0.680598     -0.512168
H      -0.261304      1.142390     -0.990936
H      -0.543307      1.114455      0.736046
H       0.272927     -1.252223      0.833784
H       0.552446     -1.225892     -0.895813
H       3.923088      0.831539      0.561107
