15
Extracted from Q-Chem output
C       1.520919     -0.345035     -0.841928
C       0.654684      0.410943      0.141433
C      -0.204231      1.589607     -0.381080
N      -1.382137      1.034054      0.324441
C      -0.681316     -0.196045      0.529593
C      -1.063539     -1.391542      0.877924
N      -1.407113     -2.562808      1.044184
H       0.947001     -0.634456     -1.724342
H       2.366861      0.266241     -1.164447
H       1.919022     -1.255760     -0.390243
H       1.230977      0.702095      1.022621
H      -0.295929      1.571635     -1.471549
H       0.071408      2.593054     -0.055342
H      -2.243219      0.978313     -0.201736
H      -1.452134     -2.835303      2.026449
