15
Extracted from Q-Chem output
C       1.526843     -0.372644     -0.763568
C       0.579867      0.185124      0.276985
C      -0.304069      1.395028     -0.126436
N      -1.546657      0.639522      0.186414
C      -0.762926     -0.530772      0.409468
C      -1.148563     -1.905423     -0.004721
N      -1.258705     -1.893326      1.266048
H       1.014195     -0.531885     -1.713655
H       2.359883      0.313318     -0.928750
H       1.934448     -1.331977     -0.440451
H       1.092481      0.338808      1.227155
H      -0.203633      1.644871     -1.184004
H      -0.194206      2.296717      0.475935
H      -2.217799      0.548372     -0.565883
H      -0.885742     -0.827750      1.707129
