18
Extracted from Q-Chem output
C      -1.517509      0.597793     -0.207709
C      -0.356284     -0.169934      0.418669
C      -0.578105     -1.732199      0.374978
C      -0.493087     -2.074660     -1.047431
C       1.006616      0.231035     -0.155731
C       1.400035      1.666924      0.164612
H      -1.448662      1.660028      0.033035
H      -1.532794      0.488639     -1.292462
H      -2.473571      0.235625      0.173496
H      -0.340826      0.054762      1.490622
H       0.172118     -2.184641      1.035535
H      -1.580099     -1.903794      0.776874
H       1.001410      0.088653     -1.242617
H       0.560551     -2.345372     -1.255621
H       1.769076     -0.447764      0.239602
H       0.733138      2.386860     -0.312449
H       1.372011      1.848943      1.242403
H       2.412731      1.880432     -0.180811
