9
Extracted from Q-Chem output
O       2.150897     -0.074886     -0.000374
C       0.936792     -0.374632      0.266225
N       0.347597     -1.542028      0.416756
O      -1.032995     -1.267172      0.223930
C      -1.229566     -0.030826     -0.091216
C      -0.055332      0.695904     -0.062163
H       1.085557      0.615222     -0.755990
H      -2.260192      0.261772     -0.245146
H       0.012557      1.741008      0.210084
