16
Extracted from Q-Chem output
C      -1.479034     -0.965285     -0.478902
C      -1.389942      0.911528      1.147631
C      -0.483384      1.895875      0.949608
C       0.738243      1.455721      0.283877
C       0.675395      0.150078      0.023317
C       1.623883     -0.809974     -0.602489
N      -0.629747     -0.297515      0.526676
H      -2.429035     -1.208874     -0.010992
H      -1.649551     -0.259007     -1.288866
H      -0.990726     -1.863545     -0.857676
H      -0.652351      2.919295      1.255849
H       1.584366      2.082095      0.031123
H       1.226099     -1.248142     -1.522636
H       2.549245     -0.294528     -0.856399
H       1.878152     -1.633967      0.071143
H      -0.503306     -0.927169      1.318062
