16
Extracted from Q-Chem output
C      -1.388253     -1.103927      1.377563
C      -0.497299      0.082841      1.027701
C       1.970641      1.308040     -0.277349
C       0.843270      1.034288     -1.076358
C       0.650987     -0.530796     -1.199961
C      -0.339924      0.230279     -0.463863
H      -1.506171     -1.200297      2.458007
H      -2.385578     -0.998395      0.942715
H      -0.962517     -2.037712      1.002821
H      -0.923332      1.004393      1.434032
H       2.560958      2.098625     -0.776479
H       0.489574     -0.028169      1.477702
H       0.584818      1.567885     -1.989655
H       1.367635     -1.121208     -0.646642
H       0.462524     -0.844719     -2.217534
H      -1.255550      0.453394     -1.003135
