11
Extracted from Q-Chem output
O      -2.415232      0.526893      0.123338
C      -1.133896      0.320583      0.165534
C       1.161215     -0.958077     -0.545493
C       1.435352      0.090358      0.304835
O       0.862766      0.296580      1.415181
H      -2.630798      1.374987     -0.281347
H      -0.819510     -0.590971      0.630020
H      -0.469552      1.043947     -0.269638
H       1.660260     -1.020862     -1.504194
H       0.641724     -1.842710     -0.196757
H       2.104573      0.879082     -0.086764
