17
Extracted from Q-Chem output
C      -2.238175      0.094920     -0.204087
C      -0.877231     -0.139276      0.437966
C       2.020550     -1.045975      0.480632
O       2.369604     -1.609404      1.483461
C       1.601065      0.399655      0.431883
C       0.256188      0.608118     -0.257999
O       0.426796      0.193744     -1.605731
H      -2.475169      1.161184     -0.255133
H      -3.030210     -0.392421      0.365243
H      -2.284618     -0.312892     -1.217326
H      -0.902540      0.180976      1.483744
H       1.998268     -1.580147     -0.488799
H      -0.648165     -1.209697      0.444550
H       1.581112      0.794397      1.448510
H       2.361579      0.943386     -0.138011
H       0.030376      1.684183     -0.232677
H      -0.386753      0.351964     -2.087274
