13
Extracted from Q-Chem output
C       0.481327     -1.043032      0.280317
C       0.432514     -0.065828     -0.926838
C       0.605192      1.276651     -0.218588
C      -0.235502      1.161548      0.801347
N      -1.075954     -0.166641     -0.903547
C      -0.811762     -0.236030      0.583892
H       1.318206     -0.976377      0.976747
H       0.280682     -2.080125     -0.000684
H       0.948727     -0.241996     -1.868136
H       1.245941      2.092180     -0.516722
H      -0.490512      1.855578      1.587340
H      -1.319518     -1.108959     -1.210380
H      -1.606886     -0.592526      1.235164
