15
Extracted from Q-Chem output
C       1.757945     -0.009664      0.292315
C       0.299942      0.196096      0.043498
C      -0.576778      1.328475      0.563580
C      -1.787248     -1.283035      0.464603
O      -1.324982      1.322411     -0.683760
C      -0.517881      0.305275     -1.139214
C      -0.612390     -1.057568     -0.246966
H       1.930356     -0.334246      1.320094
H       2.165414     -0.769019     -0.375692
H       2.309133      0.918079      0.127024
H      -0.034798      2.269975      0.666244
H      -1.219221      1.118063      1.415341
H      -2.024152     -2.358920      0.405677
H      -0.383159      0.139834     -2.199880
H      -0.017574     -1.817546     -0.759712
