15
Extracted from Q-Chem output
C       1.868383      0.150049      0.236372
C       0.383622      0.090179      0.071823
C      -0.594094      0.991188      0.784004
C      -1.800535     -0.701023      0.328849
O      -1.622614      0.564763     -0.674266
C      -0.412127     -0.030874     -1.186927
C      -0.448065     -1.146419     -0.197211
H       2.163784     -0.137426      1.247934
H       2.353021     -0.541218     -0.455477
H       2.258112      1.150747      0.034866
H      -0.575926      2.041560      0.501374
H      -0.821024      0.826861      1.828842
H      -2.637787     -1.259786     -0.099751
H      -0.113617      0.123091     -2.216258
H      -0.028932     -2.139483     -0.272468
