14
Extracted from Q-Chem output
N      -2.750241      0.087102     -0.684709
C      -1.669898     -0.369199     -0.039088
C       0.979788     -1.049645      1.097497
C       1.613773     -0.314454      0.238497
N       2.594602     -0.107590     -0.677605
C       0.476190      0.328740      0.920635
N      -0.774802      0.575496      0.216932
H      -2.899033      1.056098     -0.949624
H      -3.486946     -0.552768     -0.908086
H       0.795948     -1.991815      1.576889
H       2.455226      0.664071     -1.305323
H       2.979781     -0.927800     -1.114522
H       0.638535      1.092202      1.684981
H      -0.935265      1.547680     -0.041339
