14
Extracted from Q-Chem output
N      -2.490074     -0.182147     -0.468635
C      -1.565600     -0.139703      0.519223
C       0.387062     -1.080132      0.563578
C       1.254276     -0.275243      0.017149
N       2.514200     -0.230506     -0.525874
C       0.526828      0.817243      0.650639
N      -0.814784      1.015987      0.475928
H      -2.411109      0.323545     -1.340966
H      -3.164334     -0.924004     -0.450539
H       0.334309     -2.062705      1.002404
H       2.670040      0.503474     -1.197766
H       2.917500     -1.114886     -0.785527
H       1.061287      1.475969      1.335376
H      -1.201946      1.911228      0.220142
