14
Extracted from Q-Chem output
O       2.458115     -0.200953      0.494243
C       1.330458      0.096799     -0.092134
C       0.162149     -0.775753     -0.518485
C      -0.541244     -0.495094      0.841531
C      -1.781178     -0.091723      0.064442
N      -0.693804      0.455979     -0.837379
C       0.110310      0.850608      0.407058
H       2.394853      0.485482     -0.717860
H       1.649689      0.783022     -1.273425
H       0.117218     -1.678707     -1.123015
H      -0.413871     -1.026683      1.783254
H      -2.376271     -0.879465     -0.401271
H      -2.425901      0.681190      0.486999
H       0.006062      1.827996      0.871932
