19
smiles: [C:1](/[C:4](=[C:2](/[O:3][H:12])[H:11])[H:13])([H:8])([H:9])[H:10].[C:5](=[C:6]([C:7]([H:17])([H:18])[H:19])[H:16])([H:14])[H:15]
C        2.79352900      -0.39845900      -0.85794800
C        1.46231200      -0.01771100       1.21093900
O        0.40350200       0.39174100       1.95670700
C        1.58974100       0.07621500      -0.10523100
C       -2.20198400       1.45083700      -0.04537900
C       -2.36061800       0.18732600       0.31671500
C       -1.96433300      -0.99882300      -0.50337200
H        2.53028500      -1.16229300      -1.59412100
H        3.53425600      -0.82909500      -0.18186400
H        3.27382700       0.42005100      -1.40031800
H        2.23221100      -0.45222600       1.83940900
H       -0.26314400       0.77296500       1.37958800
H        0.78154700       0.52323700      -0.68159900
H       -1.75801100       1.71624900      -0.99959200
H       -2.50860400       2.26707800       0.59729600
H       -2.81116700      -0.02661400       1.28338900
H       -1.24027200      -1.61773300       0.03286200
H       -1.52064000      -0.69520500      -1.45252900
H       -2.82830300      -1.63400800      -0.71539800
