11
Extracted from Q-Chem output
C      -0.939228      0.341938     -0.051514
C      -0.056932     -0.252688     -1.140808
O       1.281206      0.003424     -1.544396
C       1.279407      0.180255     -0.213399
N       0.979877     -0.586395      0.986916
C      -0.264264     -0.357287      1.161404
H      -0.890947      1.428214      0.069551
H      -1.986179      0.054786     -0.181941
H      -0.204279     -1.331115     -1.176043
H       1.551882      1.198220      0.068952
H      -0.766972     -0.661894      2.078613
