12
Extracted from Q-Chem output
O      -2.217479      0.980496     -0.314789
C      -1.580873     -0.221254      0.023697
C      -0.095029     -0.148085     -0.112931
N       0.517052      0.792187     -0.760503
N       1.826039      0.475953     -0.630381
C       2.039942     -0.696602     -0.017431
N       0.770510     -1.130741      0.331128
H      -1.718830      1.400137     -1.021174
H      -1.941528     -1.057892     -0.589816
H      -1.829587     -0.455741      1.061131
H       2.517899      1.085237     -1.028770
H       1.698229     -1.032220      1.170839
