12
smiles: [C-:5]#[O+:6].[C:1]([N:2]([C:3][N:4]([H:10])[H:11])[H:12])([H:7])([H:8])[H:9]
C        1.56090500       0.33963800       0.39691700
N        0.15378800       0.46575300       0.06310100
C       -0.71452000      -0.51311400      -0.20933900
N       -0.17455500      -1.73727400      -0.15499400
C       -2.57916200       1.88734400      -0.50261200
O       -3.64346500       1.63423300      -0.75799800
H        2.12178100      -0.14734900      -0.40705100
H        1.98591200       1.33042100       0.54580500
H        1.70614200      -0.23077700       1.31983000
H       -0.76786300      -2.52022600      -0.34935300
H        0.78913200      -1.95334200       0.06579300
H       -0.22124500       1.39454400       0.03241500
