12
Extracted from Q-Chem output
C       1.664777      0.423055      0.422527
N       0.289946      0.708411      0.113388
C      -0.648793     -0.121308     -0.161917
N      -0.657584     -1.441547     -0.247272
C      -1.847662      0.970448     -0.377879
O      -2.953349      0.631864     -0.660347
H       2.154212     -0.106254     -0.401175
H       2.200197      1.355840      0.590674
H       1.747975     -0.186337      1.327901
H      -1.530373     -1.884437     -0.484291
H       0.145877     -2.026863     -0.093473
H      -0.505570      1.657423     -0.015954
