14
Extracted from Q-Chem output
O      -1.157129      1.069288     -0.253371
C      -1.450043      2.165351      0.489515
N      -0.799314      2.689718      1.426041
C      -0.237966     -2.071803      0.186326
C       1.267226     -1.838572      0.091737
C       0.315692     -0.733405      0.017812
C       0.117321      0.549605     -0.145489
H      -2.402269      2.575630      0.163234
H       0.054063      2.180606      1.646827
H      -0.733799     -2.530120     -0.661093
H      -0.648745     -2.340803      1.152288
H       1.852635     -1.954413      0.996228
H       1.769970     -2.148621     -0.816824
H       0.921351      1.267593     -0.274568
