14
Extracted from Q-Chem output
O       0.427750     -0.383425     -2.550756
C      -0.095052      0.229440     -1.661946
C      -1.060080     -0.352039     -0.664998
C      -0.872252      0.136469      0.770343
O       0.184764     -0.481296      1.455583
C       1.467126     -0.064442      1.058594
H       1.730479     -0.418859      0.055183
H       0.096756      1.319902     -1.543452
H      -1.031062     -1.441263     -0.718397
H      -2.054596     -0.026791     -0.996139
H      -1.769646     -0.094674      1.345159
H      -0.746431      1.231024      0.780696
H       1.555668      1.029967      1.082296
H       2.176715     -0.487958      1.767808
