14
Extracted from Q-Chem output
O       0.919788     -0.581796     -1.961118
C       0.314719      0.214318     -1.086676
C      -1.053592     -0.151360     -0.545610
C      -1.025241      0.030406      0.962713
O       0.196494     -0.533884      1.408362
C       1.217457     -0.018134      0.633940
H       1.313927     -0.502506     -0.680713
H       0.475326      1.299353     -1.194195
H      -1.246450     -1.192064     -0.807026
H      -1.805653      0.483944     -1.016810
H      -1.834309     -0.490841      1.471271
H      -1.065742      1.094378      1.235809
H       1.465583      1.025075      0.853225
H       2.117021     -0.639006      0.749541
