16
Extracted from Q-Chem output
C       3.014467      1.636195     -0.235171
O       2.074894      0.579912     -0.232287
C      -1.135254     -0.506533      0.095118
C      -1.939256     -0.819301     -1.137126
C      -1.567140     -1.137041      1.390869
C      -0.093445      0.275250      0.041184
N       0.806422      1.115790      0.016780
H       3.035444      2.146240      0.731186
H       3.979287      1.168197     -0.425963
H       2.791314      2.359782     -1.023272
H      -1.941030     -1.896058     -1.326348
H      -1.544222     -0.315694     -2.017630
H      -2.978884     -0.510952     -0.996936
H      -2.595809     -0.850829      1.626273
H      -0.926420     -0.839840      2.219199
H      -1.542417     -2.227016      1.308576
