10
Extracted from Q-Chem output
O      -1.523959     -0.527326      1.211746
C      -0.779895      0.750118      0.145831
C      -0.151543     -0.408682      0.667249
C       0.916649     -1.131012      0.524699
C       1.755686     -0.180393     -0.257077
O       1.331139      0.743024     -0.949939
H      -1.989977     -1.211241      0.710482
H      -0.810657      1.697943      0.676402
H      -1.321146      0.688840     -0.792163
H       2.848472     -0.309465     -0.200296
