13
smiles: [C:1]([C:2]1([H:11])[C:6]([H:12])=[C:7]1[H:13])([H:8])([H:9])[H:10].[O:3]=[C:4]=[O:5]
C       -1.40181500      -0.65908600      -0.19941300
C       -0.66763900       0.47778500       0.47802200
O        1.89106100      -1.91159300       1.01866700
C        2.28625600      -1.32151300       0.10621700
O        2.68147900      -0.73144200      -0.80625100
C        0.16536100       1.45562500      -0.29520200
C       -0.95294600       1.91272300       0.14917200
H       -1.68205100      -0.38763200      -1.21949200
H       -2.31379600      -0.91945600       0.34457600
H       -0.78057100      -1.55750900      -0.24657500
H       -0.35842500       0.24477400       1.49911600
H        1.07615000       1.61183900      -0.84674900
H       -1.65083900       2.72696100       0.23870900
