13
Extracted from Q-Chem output
C      -1.434234     -0.930611      0.007956
C      -0.420117     -0.024213      0.605409
O       1.247977     -1.154456      0.374982
C       2.033992     -0.512186     -0.298665
O       3.098969     -0.510256     -0.820180
C       0.169080      1.073490     -0.106466
C      -0.553154      2.089179     -0.128938
H      -1.345667     -0.968149     -1.076688
H      -2.439831     -0.599265      0.274041
H      -1.299474     -1.931118      0.422160
H      -0.367268      0.014285      1.688690
H       1.335803      0.731587     -0.530081
H      -0.935804      3.070730     -0.306558
