19
Extracted from Q-Chem output
C      -3.218841      0.573762     -0.313902
C      -2.003405     -0.051257     -0.984659
C      -0.748389      0.046033     -0.123504
C       0.464601     -0.539903     -0.775727
C       1.749963     -0.287219     -0.328973
C       2.682064      0.388314      0.248219
C       3.613819      0.039743      1.339782
H      -3.446706      0.075376      0.631523
H      -3.047638      1.630821     -0.097388
H      -4.103736      0.503838     -0.948354
H      -2.205485     -1.103906     -1.208009
H      -1.820136      0.437863     -1.946171
H      -0.929359     -0.437855      0.843072
H      -0.512406      1.092080      0.115179
H       1.666267     -1.462448     -0.265953
H       0.328942     -1.224884     -1.607521
H       3.411543      0.720274      2.172520
H       4.647646      0.236651      1.049307
H       3.536186     -0.988188      1.716393
