14
smiles: [C:1](=[C:2]([C:3]([H:11])([H:12])[H:13])[H:10])([H:8])[H:9].[O:4]=[C:5]([O:6][H:7])[H:14]
C       -0.74219800       1.62880100      -0.15422200
C       -1.08042600       0.37744400      -0.42337700
C       -1.54669900      -0.62296500       0.58569800
O        1.52205500      -1.82012400      -0.42138200
C        2.40118000      -1.03490700      -0.23055300
O        2.22819100       0.27601700      -0.03652000
H        1.27875700       0.45478600      -0.07999400
H       -0.41624300       2.30813400      -0.93237100
H       -0.78114600       2.02188900       0.85676300
H       -1.02591100       0.03028100      -1.45283300
H       -0.89949500      -1.50379800       0.59202900
H       -2.55497500      -0.97263400       0.34871200
H       -1.55874600      -0.19808100       1.59035600
H        3.47011100      -1.28190400      -0.18833500
