13
Extracted from Q-Chem output
C       2.436873      0.884725      0.121087
C       0.728232     -0.550216     -0.584228
C      -0.292440     -1.333642     -0.326229
N      -1.604112     -0.815295     -0.190458
C      -1.879367      0.291506      0.482913
O      -3.190598      0.538574      0.322647
N       1.669128      0.152154     -0.874323
H       2.339718      1.948988     -0.092491
H       3.487612      0.616164      0.013700
H       2.101027      0.686005      1.141173
H      -0.137843     -2.388945     -0.149297
H      -2.345922     -1.293474     -0.693802
H      -3.389780      1.328093      0.826974
