13
Extracted from Q-Chem output
C       2.347782      0.347400     -0.056116
C       0.751480      0.239162     -0.064315
C       0.008918     -0.828304      0.240357
N      -1.404644     -0.690257      0.176017
C      -1.999551      0.436483     -0.144370
O      -3.332460      0.231545     -0.130074
N       0.851022      1.439392     -0.425320
H       2.620895      0.158158      0.978308
H       2.776397      1.303486     -0.363631
H       2.655734     -0.411073     -0.771345
H       0.422426     -1.771819      0.547542
H      -1.954831     -1.518336      0.376796
H      -3.743167      1.064161     -0.363849
