9
Extracted from Q-Chem output
C      -1.047074     -0.601865      0.111693
O      -0.450343      0.621175      0.556162
C       0.788811      0.940954      0.229821
O       1.328608      1.938985      0.570760
C       2.032894     -0.772574     -1.243818
N       1.438616     -0.019335     -0.576387
H      -2.047464     -0.594873      0.534057
H      -1.102192     -0.633577     -0.976142
H      -0.492674     -1.462374      0.485028
