9
Extracted from Q-Chem output
C      -1.041649     -0.616893      0.095673
O      -0.384547      0.544432      0.626998
C       0.815927      0.910985      0.298644
O       1.430459      1.830590      0.673719
C       1.738038     -0.438279     -0.487379
N       1.281129      0.231448     -1.345925
H      -1.987904     -0.657256      0.626663
H      -1.203560     -0.499213     -0.973392
H      -0.450777     -1.508548      0.296951
