14
Extracted from Q-Chem output
C      -2.063252      0.363810     -0.128481
C      -0.178630      0.295568      0.676320
C       0.864082     -0.817341      0.887002
C       1.677831     -0.264185     -0.305534
C       0.523956      0.693379     -0.578615
O      -0.566662     -0.114131     -0.932759
H      -2.120274      1.440878     -0.036647
H      -2.428634     -0.131162      0.762429
H      -2.588773      0.000883     -1.012542
H       1.360700     -0.705163      1.851756
H       0.477951     -1.832465      0.805681
H       2.563097      0.272919      0.033462
H       1.948501     -0.932018     -1.123833
H       0.584278      1.662376     -1.068939
