12
Extracted from Q-Chem output
N       1.885444     -0.170508     -0.239993
C       0.934377      0.561574      0.252907
O       1.419483      1.721507      0.511655
C      -0.482589      0.214325      0.476322
C      -1.331376     -0.177525     -0.677366
N      -0.839195     -1.180036      0.249248
H       2.409224      1.014773      0.031593
H       1.780766     -1.148988     -0.462278
H      -0.956624      0.764416      1.280277
H      -0.890756     -0.211675     -1.666207
H      -2.375917      0.110090     -0.642278
H      -1.558402     -1.475321      0.896588
