17
smiles: [C:1](=[C:2]([C@:6]1([O:7][H:17])[C@:3]([O:4][H:13])([H:12])[C:5]1([H:14])[H:15])[H:11])([H:9])[H:10].[H:8][H:16]
C       -2.29671600      -0.29110300       0.33722800
C       -1.06675000      -0.20024300       0.81980800
C        1.36507100      -1.01781400       0.48950100
O        2.09687600      -1.74612800      -0.43241300
C        1.40874000       0.48004400       0.47671200
C        0.16496600      -0.24800800       0.00557200
O       -0.01297100      -0.36487500      -1.37617100
H       -1.03913500       2.46582800      -0.61563300
H       -3.15857700      -0.24808500       0.99028900
H       -2.47662600      -0.42679200      -0.72238500
H       -0.90994400      -0.07970100       1.88846900
H        1.28932700      -1.52086400       1.44636400
H        1.66672500      -1.63173200      -1.28757200
H        1.36313100       1.02240100       1.41238300
H        2.01953800       0.92974500      -0.29617700
H       -0.62198200       2.89898200      -1.05464700
H       -0.18707200       0.50439400      -1.74338400
