17
Extracted from Q-Chem output
C      -1.810175     -0.267487     -0.097178
C      -0.615253     -0.016166      0.605525
C       0.764729     -0.883376      0.760735
O       0.939072     -1.904360     -0.155926
C       1.634704      0.364994      0.549612
C       0.397760      0.832003     -0.185304
O       0.506279      0.541068     -1.501181
H      -1.623178      1.526787     -0.512284
H      -2.749203     -0.350426      0.432141
H      -1.779365     -0.767376     -1.061279
H      -0.772247      0.432055      1.586323
H       0.778471     -1.313968      1.757803
H       0.928282     -1.527999     -1.043398
H       1.827830      0.914033      1.467149
H       2.534200      0.234792     -0.044597
H      -0.894422      1.979863     -0.399695
H      -0.380257      0.632434     -1.886183
