15
Extracted from Q-Chem output
C       2.366793     -0.313163      0.400110
C       1.022947      0.194139      0.691965
C      -1.552629      1.079485      0.203530
C      -1.501543     -0.448365      0.305311
O      -1.860138     -0.535138     -1.123351
C      -0.836522      0.494545     -1.018772
C       0.001117     -0.481885     -0.092638
H       2.449055     -1.084698      1.189334
H       2.516729     -0.827526     -0.559894
H       3.166169      0.397876      0.608385
H      -2.539803      1.483288     -0.008679
H      -0.962057      1.650147      0.913274
H      -2.006798     -1.122038      0.993738
H      -0.481650      0.964602     -1.933664
H       0.266938     -1.394383     -0.642531
