15
Extracted from Q-Chem output
C      -1.341723      1.203800     -0.327751
C      -0.274843      0.208441     -0.004056
C      -0.075693     -0.466363      1.340737
O       1.364248     -0.460773      1.189283
C       1.244038      0.269647     -0.028654
C       0.523166     -0.571857     -1.017871
O       0.632938     -1.954973     -1.020190
H      -1.414032      1.976743      0.440879
H      -1.140642      1.697102     -1.280256
H      -2.315440      0.714632     -0.408793
H      -0.480386     -1.474645      1.462929
H      -0.363861      0.161937      2.186614
H       1.966681      1.051454     -0.226634
H       0.467450     -0.160777     -2.020650
H       1.208099     -2.194368     -0.285587
