16
Extracted from Q-Chem output
C       2.220486      0.713363     -0.318572
C       1.693381     -0.590081      0.257484
O       0.450067     -0.460721      0.910528
C      -1.907801     -0.459813      0.809151
C      -2.918397      0.392858      0.833640
C      -0.641076     -0.242759      0.047109
H       3.225986      0.565067     -0.717706
H       2.267852      1.479752      0.456787
H       1.594295      1.083156     -1.132350
H       1.617650     -1.352752     -0.531686
H       2.381296     -0.967791      1.016063
H      -1.964745     -1.396630      1.356330
H      -3.828894      0.177477      1.379211
H      -2.874117      1.340167      0.306075
H      -0.590027     -0.952771     -0.794354
H      -0.627273      0.769749     -0.376595
