13
Extracted from Q-Chem output
C       0.462076     -0.707673      0.550082
C      -0.813246     -1.089389     -0.166259
O      -1.780584     -0.028263     -0.116729
C      -1.443820      1.258267     -0.194907
N      -0.130735      1.494056     -0.235015
C       0.984668      0.562431     -0.091442
H       0.249462     -0.534753      1.607745
H       1.196310     -1.511523      0.479629
H      -0.614356     -1.320620     -1.217638
H      -1.301306     -1.950006      0.288948
H       0.098188      2.469616     -0.303528
H       1.756985      1.029910      0.521926
H       1.423955      0.345558     -1.070366
