15
Extracted from Q-Chem output
O       1.144113     -0.785459     -1.573673
C       0.925392      0.743222      1.342343
C       0.116342      1.333579      0.209860
C      -0.522999     -0.094477      0.105824
O      -1.901486     -0.192057      0.380433
C      -0.205017     -0.856042     -1.180769
C       0.332822     -0.447334      1.301421
H       1.689603     -1.040663     -0.825283
H       1.708934      1.157930      1.964608
H      -0.609489      2.088172      0.516225
H       0.671618      1.674892     -0.665485
H      -2.393723      0.106649     -0.388321
H      -0.537475     -1.894867     -1.054023
H      -0.781232     -0.422061     -2.004597
H       0.417317     -1.358251      1.881815
