15
Extracted from Q-Chem output
O       1.546287     -0.253953     -0.728528
C       1.100106      0.429425      0.652292
C      -0.032107      1.315272      0.126964
C      -0.830551     -0.014772      0.179777
O      -2.209259     -0.074066      0.420819
C      -0.325446     -0.826432     -0.964233
C       0.132545     -0.472646      1.219199
H       1.961391     -1.082637     -0.458579
H       2.027309      0.782657      1.094325
H      -0.381633      2.018426      0.876575
H       0.103931      1.799309     -0.843475
H      -2.675421      0.210713     -0.370218
H      -0.443833     -1.900683     -0.867145
H      -0.194050     -0.458992     -1.975958
H       0.275450     -1.458386      1.648564
