14
Extracted from Q-Chem output
O       1.836819     -1.279235      0.919255
C       1.949514     -0.449572     -0.079977
C      -0.990755     -1.034316     -0.588889
C      -1.176399      0.442542     -0.275866
C       0.038375      1.226271      0.129188
C       1.316169      0.845069      0.187830
H       1.310812     -0.909493      1.656408
H      -0.186179     -1.194504     -1.310401
H      -1.905928     -1.445032     -1.017539
H      -0.757231     -1.619286      0.302098
H      -1.591035      0.942619     -1.158813
H      -1.939316      0.570644      0.500024
H      -0.159125      2.277688      0.321431
H       2.070783      1.610768      0.370877
