14
Extracted from Q-Chem output
O       1.832536     -1.426275      0.593226
C       1.324899     -0.564120     -0.309795
C      -0.809113     -0.913308     -0.335883
C      -1.286900      0.522535     -0.271855
C      -0.119544      1.370692      0.151048
C       1.085242      0.804250      0.142150
H       1.671138     -1.121004      1.497127
H       0.375612     -1.000143     -0.961904
H      -1.305831     -1.529506     -1.088024
H      -0.797504     -1.431990      0.620502
H      -1.635878      0.839399     -1.260932
H      -2.139428      0.651343      0.403854
H      -0.259370      2.422031      0.376421
H       1.976373      1.362691      0.414050
