12
smiles: [H:9][H:12].[O-:1][C:2]1=[C:6]([H:11])[O+:5]=[C:4]([H:10])[C:3]1([H:7])[H:8]
O        0.77388000       2.27272200       0.24579500
C        0.50158100       1.13794600      -0.10474800
C       -0.93581600       0.56849400      -0.21708600
C       -0.70797600      -0.80649600      -0.67348600
O        0.54375500      -1.02104200      -0.80263900
C        1.32229200       0.05560400      -0.49310200
H       -1.53599200       1.15108200      -0.92170400
H       -1.45012600       0.60659100       0.74756800
H       -0.07127800      -1.39268000       1.99794300
H       -1.37715400      -1.62194700      -0.90303400
H        2.38180100      -0.08785900      -0.59072300
H        0.54013000      -0.97030800       1.95182100
