13
Extracted from Q-Chem output
C       2.069817     -0.345986      0.221853
C       1.067599      0.329289      0.759886
C      -0.227984      0.616774      0.077400
C      -0.634344     -0.152368     -1.159289
C      -1.720242     -0.582079     -0.515313
N      -1.418223     -0.015842      0.750655
H       2.991714     -0.515005      0.764462
H       2.003185     -0.759067     -0.778384
H       1.159568      0.725232      1.768082
H      -0.374426      1.697583     -0.023876
H      -0.181668     -0.338943     -2.119008
H      -2.577867     -1.202229     -0.744277
H      -2.101597      0.631256      1.127473
