13
Extracted from Q-Chem output
C       1.250450     -0.503417     -0.082764
C       0.968340      0.580853      0.828206
C      -0.192916      1.077721      0.080859
C      -0.137388     -0.116978     -0.926186
C      -1.223293     -0.706808     -0.189863
N      -1.107575      0.239272      0.903543
H       1.441456     -1.517641      0.284581
H       1.960510     -0.254972     -0.872028
H       1.185641      0.723817      1.874397
H      -0.487172      2.110595     -0.102807
H      -0.013129     -0.116531     -2.003266
H      -1.497314     -1.746500     -0.037922
H      -2.097772      0.304076      0.346540
