16
Extracted from Q-Chem output
C       2.012205     -0.288957     -0.335631
C       0.726090     -0.495546      0.454184
C      -0.522900      0.002508     -0.263962
C      -1.817020     -0.472038      0.407552
C      -0.589309      1.508225     -0.368930
O       0.131132      2.280440      0.201113
H       2.196952      0.769739     -0.520616
H       2.871464     -0.685965      0.207072
H       1.967584     -0.801023     -1.300621
H       0.594550     -1.560127      0.669712
H       0.798494      0.012898      1.419512
H      -0.528021     -0.369086     -1.298079
H      -1.839803     -0.164566      1.455548
H      -2.703563     -0.063569     -0.082701
H      -1.886928     -1.559824      0.372146
H      -1.410927      1.886891     -1.016300
