16
Extracted from Q-Chem output
C      -2.486732      0.667340      0.696244
C      -1.609339     -0.484638      0.231978
N      -0.300258     -0.031588     -0.199559
C       0.760608     -0.200007      0.520488
O       1.248412     -0.671846      1.489165
O       1.698000      0.631842     -0.531910
C       2.737559     -0.150556     -1.103235
H      -2.608724      1.405337     -0.098425
H      -3.476539      0.305131      0.981399
H      -2.043114      1.166133      1.559384
H      -1.490669     -1.219511      1.033743
H      -2.081133     -0.997039     -0.609719
H       0.628577      0.581369     -0.982827
H       3.318223      0.482399     -1.772476
H       3.374029     -0.511732     -0.295217
H       2.326873     -1.001932     -1.653815
