12
Extracted from Q-Chem output
O       0.983149      1.832454      0.762022
C       0.550114      0.654533      0.244164
C      -0.919340      0.441100      0.040156
C      -0.928314     -1.051783     -0.314743
O       0.411943     -1.399039     -0.694526
C       1.219321     -0.401329     -0.200030
H      -1.292405      1.080415     -0.766169
H      -1.503240      0.657648      0.935874
H      -1.199742     -1.655111      0.557411
H      -1.591279     -1.306031     -1.140505
H       2.282227     -0.584043     -0.259937
H       1.942436      1.849555      0.768528
