12
Extracted from Q-Chem output
O       1.010368      1.751010      0.907755
C       0.464474      0.852603      0.175414
C      -0.961400      0.530050     -0.125319
C      -0.832630     -1.010596     -0.116373
O       0.505366     -1.328029     -0.509057
C       1.288556     -0.224229     -0.161940
H      -1.217444      0.907426     -1.119068
H      -1.671732      0.911496      0.604560
H      -1.013189     -1.390882      0.895939
H      -1.514196     -1.504487     -0.807004
H       2.177513     -0.081579     -0.766648
H       1.737737      0.649106      0.982325
