13
Extracted from Q-Chem output
N      -1.721961      0.717252     -0.534884
C      -0.527744      0.217097     -0.161136
C      -0.012499     -1.089140     -0.625762
O      -0.668123     -1.123237      0.985675
N       1.355641     -0.929904     -0.407357
C       1.671130      0.273943      0.167340
C       0.569207      1.026450      0.349845
H      -2.336611      0.105962     -1.043493
H      -2.144231      1.451861      0.003706
H      -1.454084     -1.625080      0.752621
H       2.024530     -1.640330     -0.630045
H       2.696399      0.526414      0.405299
H       0.515067      2.019358      0.764349
