17
smiles: [H:9][H:14].[O:1]([C:2]1=[C:7]([H:17])[C:6]([H:16])=[C:5]([H:15])[C:4]([H:12])([H:13])[C:3]1([H:10])[H:11])[H:8]
O        2.39288000      -0.85994800       1.04846200
C        1.21782100      -0.28003900       0.69233600
C        0.09406100      -1.18092000       0.26152200
C       -1.26959000      -0.52954500       0.48366200
C       -1.26975600       0.91326000       0.05815500
C       -0.15458900       1.63466500       0.16245800
C        1.09807900       1.04762200       0.63305900
H        2.28365500      -1.81171900       1.08309600
H       -0.41245700       0.05170700      -3.39335200
H        0.14193100      -2.13266500       0.80058400
H        0.23807000      -1.41191300      -0.80237100
H       -1.52351000      -0.58019100       1.55132800
H       -2.03939500      -1.09598900      -0.04327100
H       -0.42733000       0.39456700      -2.73256600
H       -2.19747000       1.36269300      -0.27489200
H       -0.15814300       2.68760500      -0.09586600
H        1.93974300       1.67962100       0.88518200
