17
Extracted from Q-Chem output
O       2.383368     -0.800332      0.016294
C       1.131484     -0.259286      0.079025
C       0.003588     -1.221839      0.385288
C      -1.371604     -0.539747      0.225994
C      -1.230224      0.887804     -0.275842
C      -0.214229      1.678122      0.245309
C       1.021167      1.077384      0.446667
H       2.315145     -1.740315     -0.162454
H       0.467394     -0.016436     -1.381967
H       0.136478     -1.574391      1.411614
H       0.089999     -2.097177     -0.266501
H      -1.881812     -0.515507      1.191880
H      -2.009501     -1.112710     -0.448849
H      -0.355181      0.375457     -1.447741
H      -2.148681      1.359830     -0.610470
H      -0.300582      2.758138      0.245688
H       1.919843      1.656601      0.613837
