10
Extracted from Q-Chem output
O       1.986955     -0.270360     -0.371151
C       0.708571     -0.048645     -0.005254
C       0.314046      1.277602      0.341506
N      -0.941761      1.482054      0.005978
N      -1.996491      1.238462     -0.319812
C      -1.386080     -1.268726     -0.156263
N      -0.167262     -0.987578      0.014854
H       2.088501     -1.203018     -0.586886
H       0.892527      2.058044      0.802912
H      -1.757785     -1.992623      0.586930
