13
Extracted from Q-Chem output
C       2.201605      0.253416      1.568747
C       1.357005      0.519984      0.763002
C       0.434155     -0.533584     -0.995083
C       0.302717      0.761896     -0.227112
C      -1.101523      0.748608      0.402934
O      -1.396333     -0.622612      0.557867
C      -0.710378     -1.285782     -0.488203
H       2.956308      0.035636      2.287247
H       0.541146      1.649434     -0.813464
H      -1.151866      1.232346      1.376931
H      -1.816774      1.227784     -0.279788
H      -1.310867     -1.287242     -1.430641
H      -0.533314     -2.331070     -0.236117
