17
Extracted from Q-Chem output
C      -1.153728      1.387818     -0.087519
C      -1.314630     -0.700160     -0.226075
N      -0.050418     -0.900461      0.310489
C       0.508500     -2.063379      0.561647
C       0.597329      0.323754      0.543994
C       1.470823      0.787729     -0.586645
H      -1.910760      1.403955     -0.873527
H      -1.633215      1.583208      0.867585
H      -0.451244      2.186473     -0.318488
H      -2.083856     -0.517792      0.515869
H      -1.609440     -1.427004     -0.989574
H      -0.110261     -2.926597      0.759340
H       1.586224     -2.144335      0.558653
H       1.100188      0.346519      1.518256
H       2.397707      0.202475     -0.631962
H       1.748334      1.835875     -0.449814
H       0.958453      0.685371     -1.544827
