12
Extracted from Q-Chem output
N       2.173923      0.084675     -0.005189
C       1.273231      0.909747      0.562194
O       1.543158      1.895108      1.216820
C      -0.164911      0.523348      0.328981
C      -1.861981     -0.816496     -0.529310
N      -0.466832     -0.495844     -0.342068
H       3.152969      0.272196      0.105503
H       1.848345     -0.709304     -0.528247
H      -0.892428      1.199706      0.791130
H      -2.077135     -0.841996     -1.599083
H      -2.540815     -0.108319     -0.040076
H      -2.047616     -1.819703     -0.141424
