12
Extracted from Q-Chem output
N       1.764493     -0.064805     -0.241934
C       0.872641      0.808406      0.268912
O       1.039131      2.002398      0.378276
C      -0.441197      0.149137      0.712788
C      -1.345791     -0.295910     -0.498900
N      -0.566071     -1.193836      0.789526
H       2.676475      0.258061     -0.507985
H       1.563883     -1.048207     -0.156333
H      -0.990395      0.817359      1.388536
H      -0.831242     -0.053557     -1.423847
H      -2.339919      0.113598     -0.359642
H      -1.450294     -1.417265     -0.483277
