13
Extracted from Q-Chem output
C       1.409971     -0.131729      0.755356
C       0.697139      0.755425     -0.246117
C       0.665897     -0.720440     -0.399220
C      -1.280919     -0.325138     -0.990043
N      -1.016523     -0.574067      0.471880
C      -0.798891      0.779407     -0.093163
H       2.485124     -0.179313      0.599542
H       1.089938     -0.236348      1.781774
H       1.228786      1.417533     -0.916925
H       1.009455     -1.426913     -1.135655
H      -2.338136     -0.327312     -1.274609
H      -1.756476     -0.637083      1.169992
H      -1.393879      1.600603      0.292364
