11
Extracted from Q-Chem output
O      -2.131391     -0.553661      0.468013
C      -1.416868      0.385467      0.288850
N       0.846670      1.167533      0.886116
C       0.079247      0.343201     -0.041327
C       0.595446     -1.021902     -0.083563
C       1.005302     -2.144484     -0.103051
H      -1.799118      1.426881      0.384561
H       0.799184      0.791292      1.823942
H       0.183170      0.787202     -1.039445
H       0.509617      2.121172      0.898969
H       1.371074     -3.144034     -0.121768
