11
Extracted from Q-Chem output
O      -2.173563      1.390643     -0.108460
C      -1.502751      1.168078      0.848351
N      -0.160403      0.718605      0.753041
C       0.428814      0.080124     -0.612941
C       1.058977     -1.132130     -0.280402
C       1.652123     -2.134790      0.039898
H      -1.833620      1.315435      1.888789
H       0.219388      0.279837      1.583870
H      -0.402634      0.077641     -1.306045
H       0.556500      1.358945      0.268608
H       2.195751     -3.012998      0.293475
