13
Extracted from Q-Chem output
O       2.496782      0.951624     -0.402647
C       1.369928      0.485253     -0.281247
C       1.304002     -0.907766     -0.674878
C      -0.927070     -0.902925      0.300623
C      -1.041292      0.575959     -0.012116
N       0.269474      1.179504      0.095671
H      -0.219849     -1.384296     -0.446349
H       1.728525     -1.531280      0.121666
H      -1.861552     -1.433925      0.115202
H      -0.595784     -1.089931      1.320013
H      -1.458973      0.707803     -1.017201
H      -1.718823      1.060429      0.693704
H       0.367863      2.181287      0.118868
