9
Extracted from Q-Chem output
O       2.205786     -0.541497     -0.105099
C       0.949565     -0.434427     -0.262813
N       0.565698      0.790727      0.120684
N      -0.783322      0.671809      0.321724
C      -1.124451     -0.533527     -0.173340
N      -0.095369     -1.262974     -0.536281
H       1.778713      0.683889      0.474257
H      -1.373193      1.481036      0.404881
H      -2.159446     -0.839669     -0.243425
