16
smiles: [C:1]([C:2](=[C:3]([H:10])[H:11])[C:4]([C:5][O:6][H:16])([H:13])[H:14])([H:7])([H:8])[H:9].[H:12][H:15]
C       -0.85075700       0.20442600      -1.81576900
C        0.22059800       0.09783100      -0.77216900
C        1.25911000      -0.72038000      -0.88597000
C        0.02484600       0.94285100       0.47556200
C       -0.68157600       0.05027600       1.46273200
O       -1.97343800       0.19411700       1.27218100
H       -0.68319000      -0.50084800      -2.62959200
H       -1.83556300       0.01041700      -1.38278000
H       -0.88210000       1.21479200      -2.23265900
H        2.01250700      -0.79151800      -0.11071200
H        1.38697000      -1.34687700      -1.76113500
H        2.37915600      -1.06615500       2.83391500
H        0.99049000       1.22723900       0.89082400
H       -0.55873700       1.83978500       0.24027600
H        1.66404300      -0.94455300       2.66568000
H       -2.43113500      -0.40907100       1.86740700
