16
Extracted from Q-Chem output
C      -0.856843     -0.144931     -1.428858
C       0.213638      0.066392     -0.385667
C       1.445602     -0.539709     -0.516587
C       0.157890      1.300081      0.581810
C      -0.462591      0.139538      1.180850
O      -1.785008      0.286391      1.362122
H      -0.899515     -1.193575     -1.728886
H      -1.841364      0.142476     -1.058621
H      -0.647429      0.451974     -2.318978
H       2.347359     -0.109516     -0.107522
H       1.586991     -1.315314     -1.262193
H       1.449805     -1.261294      1.335543
H       1.161245      1.552026      0.900398
H      -0.462576      2.154685      0.315593
H       0.753179     -0.914344      1.665192
H      -2.163373     -0.581315      1.529901
