16
smiles: [C:1]([C:2]([C:3]([H:10])([H:11])[H:12])([C:5](=[O:6])[H:14])[H:15])([H:7])([H:8])[H:9].[O:4]([H:13])[H:16]
C       -1.08794500      -1.04115300      -0.70075300
C       -0.09673400       0.09583400      -0.96134500
C       -0.48721500       1.39321400      -0.27355100
O        0.19632100      -0.06993900       2.67249700
C        1.29188600      -0.35759200      -0.58041700
O        2.03004800       0.22205900       0.16694600
H       -0.77662900      -1.96827500      -1.18715200
H       -1.18064300      -1.23537900       0.37042100
H       -2.07647700      -0.77984300      -1.08025500
H       -1.46757200       1.72874100      -0.61605000
H       -0.53023200       1.25770600       0.80875700
H        0.23911800       2.18048000      -0.47460900
H        0.63764600      -0.36333200       3.47068700
H        1.61235000      -1.31261100      -1.05268500
H       -0.05142100       0.25249300      -2.04847900
H        0.89713100       0.09953300       2.04169400
