16
Extracted from Q-Chem output
C      -1.269417     -1.004463     -0.496347
C      -0.201965     -0.011217     -0.280891
C      -0.555619      1.400099     -0.024609
O       0.520684     -0.375647      1.864449
C       1.189617     -0.346916     -0.617275
O       2.132484      0.279675      0.047950
H      -0.947021     -1.781071     -1.192017
H      -1.418753     -1.486010      0.475600
H      -2.213726     -0.561220     -0.811801
H      -0.967311      1.803062     -0.957742
H      -1.344155      1.478512      0.723639
H       0.326520      1.968248      0.261643
H       0.352830      0.294275      2.529154
H       1.282464     -1.450895     -0.716960
H       1.031460     -0.027267     -1.712136
H       1.370571     -0.076558      1.368216
