11
Extracted from Q-Chem output
N      -2.394234      0.627606      0.402450
C      -1.264097      0.136166      0.154659
N      -0.937725     -1.149814     -0.152455
N       0.410376     -1.279144     -0.475246
C       0.872610     -0.111707     -0.254330
N       2.146039      0.337895     -0.429499
O      -0.041959      0.801413      0.155489
H      -2.341619      1.616797      0.607327
H      -1.594959     -1.810252     -0.521321
H       2.421398      1.090596      0.178189
H       2.828734     -0.394240     -0.527486
