12
Extracted from Q-Chem output
O       0.348585     -1.485207     -1.110446
C       0.080149     -0.542291     -0.144261
C      -1.136026     -0.573868      0.637294
C      -0.622846      0.796920     -0.371125
O       0.405452      1.523256      0.244056
C       1.237313      0.337292      0.336037
H      -0.371934     -2.121418     -1.082212
H      -1.680673      0.666032      0.184546
H      -0.991594     -0.155825      1.638136
H      -0.960769      1.072328     -1.366258
H       1.613787      0.163994      1.344731
H       2.054395      0.397249     -0.383644
