15
Extracted from Q-Chem output
C       2.148067      0.438100     -0.059632
C       1.250769      0.027547      1.020185
C       0.452711     -1.105387      0.874450
C      -0.842576     -1.379053      0.630869
C      -1.855827     -0.367207      0.311853
O      -3.005876     -0.687262      0.096625
C      -1.430946      1.083707      0.271344
H       1.543450      1.233042     -0.530079
H       2.364138     -0.301070     -0.837411
H       3.048104      0.938265      0.297059
H      -1.193438     -2.401612      0.667893
H       1.121616     -1.947978      1.112057
H      -2.309649      1.714319      0.386730
H      -0.702311      1.319382      1.055714
H      -0.973409      1.304118     -0.696771
