15
Extracted from Q-Chem output
C       2.796753      0.380617      0.086785
C       1.515436     -0.139007      0.524553
C       0.420796     -0.711893      0.670162
C      -0.895764     -1.190237      0.886760
C      -2.077897     -0.412251      0.584746
O      -3.193899     -0.876004      0.747403
C      -1.887947      1.006792      0.087962
H       2.839511      1.446555      0.328063
H       2.952789      0.278270     -0.990728
H       3.616795     -0.103233      0.618870
H      -1.019881     -2.218964      1.193435
H       0.474530     -1.518145     -0.141217
H      -2.861399      1.484742      0.007019
H      -1.253794      1.578935      0.769546
H      -1.400078      1.011259     -0.889719
