11
Extracted from Q-Chem output
N       1.794780     -0.504398     -0.153461
C       0.443094     -0.161534     -0.046560
C      -0.254618      0.960505     -0.319980
N      -1.585314      0.634328     -0.078829
C      -1.774962     -0.632782      0.349799
N      -0.495827     -1.095572      0.350797
H       2.242526     -0.627672      0.743838
H       2.315512      0.162056     -0.700964
H       0.074435      1.930665     -0.649840
H      -2.352376      1.266514     -0.208438
H      -0.265799     -2.046344      0.576422
