11
Extracted from Q-Chem output
N       1.897013     -0.357236     -0.189949
C       0.542144     -0.127306     -0.004718
C      -0.260829      0.887369     -0.413892
N      -1.543970      0.521986     -0.057072
C      -1.556959     -0.626075      0.654026
N      -0.226637     -1.043230      0.689422
H       2.290700     -0.930496      0.539112
H       2.447574      0.468528     -0.355683
H      -0.033414      1.827953     -0.887311
H      -2.371485      1.049226     -0.268148
H      -1.137493     -1.750290      0.193709
