16
Extracted from Q-Chem output
C      -0.780352      1.817903      0.065723
C      -0.575545      0.035825     -0.935309
C      -0.093995     -0.919663     -0.044392
C      -0.879277     -2.115121      0.401632
C       1.244366     -0.631635      0.321655
C       1.623292      0.553368     -0.245862
N       0.511592      1.011285     -0.925201
H      -1.840581      1.691773     -0.101444
H      -0.466391      2.827065     -0.192655
H      -0.461651      1.528223      1.060100
H      -0.342615     -3.048433      0.212291
H      -1.825442     -2.155487     -0.137824
H      -1.102826     -2.081273      1.471975
H       1.883367     -1.245856      0.942949
H       2.538609      1.119462     -0.185563
H       0.600112      1.633391     -1.712302
