11
Extracted from Q-Chem output
N      -2.004740     -0.235481      0.061859
C      -0.637862      0.010326      0.028431
C       0.406953     -0.925020      0.211819
C       1.549560     -0.168234      0.157997
N       1.164474      1.102725     -0.038278
N      -0.172573      1.235197     -0.128305
H      -2.275937     -1.103902     -0.368514
H      -2.542031      0.539728     -0.293141
H       0.328240     -1.986955      0.373654
H       2.588268     -0.442043      0.250019
H       1.740528      1.918002     -0.120684
