11
Extracted from Q-Chem output
N      -1.907509     -0.164308      0.121162
C      -0.551953      0.025389     -0.032976
C       0.484454     -0.892859      0.128105
C       1.639650     -0.147479     -0.003043
N       1.380765      1.123308     -0.325040
N      -0.072703      1.236909     -0.346696
H      -2.234291     -1.102916     -0.028108
H      -2.475896      0.531313     -0.332374
H       0.399611     -1.949502      0.327512
H       2.665521     -0.470768      0.102096
H       0.693655      1.793254      0.441229
