13
Extracted from Q-Chem output
C       1.561714      1.084606      0.618273
C       1.351553      0.238460     -0.476955
C       0.419396     -0.911993     -0.027785
C      -0.860977     -0.513155      0.684938
C      -1.100373      0.402344     -0.530687
N       0.106841     -0.142494     -1.220971
H       0.612937      1.536863      0.946777
H      -1.065962      1.477381     -0.358385
H       2.202107     -0.160745     -1.019253
H       0.870572     -1.896901     -0.042151
H      -0.796702     -0.078733      1.679203
H      -1.553073     -1.353989      0.709494
H      -1.986925      0.158411     -1.111705
