14
smiles: [H:10][H:12].[O:1]([C:2]1([H:9])[C-:3]([H:11])[N+:4]([C:6](=[O:7])[H:14])=[C:5]1[H:13])[H:8]
O       -2.32225300      -0.29955500      -1.22448800
C       -1.27251500      -0.12790600      -0.34146000
C       -0.05936600      -0.96705700      -0.54759300
N        0.70407600       0.14331500      -0.38611100
C       -0.28951800       1.08021200      -0.31236900
C        2.10177300       0.22312600      -0.16888400
O        2.65577200       1.23863900       0.10152700
H       -3.01042700       0.33559700      -1.02089400
H       -1.56862600      -0.21867700       0.71942300
H        0.26873600      -0.75565400       2.26017900
H        0.15995300      -1.78621700      -1.21865400
H        0.28088600      -0.10402100       2.62020900
H       -0.22271500       1.86086900       0.44299100
H        2.58832200      -0.75898200      -0.27640500
