14
Extracted from Q-Chem output
C      -1.627918     -0.983082      0.219058
C      -0.186994     -0.625344      0.148211
C       0.525430      0.498018     -0.120691
N       0.001892      1.837852     -0.451495
C       1.933336      0.337562     -0.074462
C       1.975442     -0.980100      0.246078
O       0.717135     -1.583699      0.385730
H      -2.258496     -0.117656      0.003870
H      -1.877693     -1.763476     -0.503550
H      -1.898294     -1.352370      1.210999
H      -0.533598      2.268728      0.299547
H      -0.541068      1.868700     -1.312151
H       0.882298      2.355213     -0.582697
H       2.775574     -1.683373      0.420283
