14
Extracted from Q-Chem output
C      -1.675713     -1.102457      0.258259
C      -0.272638     -0.631710      0.144490
C       0.346055      0.537678     -0.125256
N       0.041781      1.924179     -0.439807
C       1.763929      0.437586     -0.114397
C       1.928978     -0.873503      0.181251
O       0.714519     -1.531644      0.340355
H      -2.367973     -0.279354      0.079688
H      -1.888271     -1.888305     -0.469866
H      -1.877353     -1.507173      1.252410
H      -0.404983      2.460109      0.296498
H      -0.416678      2.087943     -1.329839
H       1.266672      1.935660     -0.452094
H       2.777558     -1.524058      0.320334
