14
smiles: [H:13][H:14].[O:1]([C:2]([C@@:3]1([H:10])[C:4]([H:11])([H:12])[C:5]1=[O:6])([H:8])[H:9])[H:7]
O        2.20193900      -1.13350600      -0.70957200
C        1.51587300       0.09143300      -0.81718100
C        0.33834600       0.16742400       0.12654200
C       -0.88318300       1.07545500      -0.23034500
C       -0.94871100      -0.38553700      -0.29830000
O       -1.57890000      -1.35613900      -0.58382900
H        1.58623100      -1.84553800      -0.89901000
H        1.17225200       0.26805900      -1.84576100
H        2.24176400       0.87000500      -0.57651900
H        0.58608100       0.10174800       1.18167500
H       -0.84394400       1.63120100      -1.16154800
H       -1.37777000       1.58837100       0.58569500
H       -1.88468400      -0.28057200       2.93774700
H       -2.06185400      -0.81131600       2.44653500
