14
Extracted from Q-Chem output
O       1.740985     -1.335656     -0.473490
C       1.344351     -0.007354     -0.712912
C       0.383932      0.470288      0.358579
C      -0.946184      1.145360     -0.010394
C      -0.886691     -0.290410      0.360066
O      -1.214576     -1.397917     -0.263481
H       0.932323     -1.863848     -0.504439
H       0.872532      0.091835     -1.697812
H       2.247451      0.604895     -0.716180
H       0.825213      0.769372      1.301486
H      -1.159996      1.334196     -1.056029
H      -1.338312      1.877596      0.682734
H      -1.290226     -0.330605      1.662726
H      -1.485104     -1.088416      1.144672
