15
Extracted from Q-Chem output
C       1.678751     -0.483007     -0.803456
C       0.804062      0.210472      0.193986
C      -0.228783      1.218812     -0.262465
N      -1.039767      0.803898      0.960146
C      -0.327303     -0.532364      0.868600
C      -1.185578     -1.416281      0.013260
N      -1.701104     -2.148522     -0.708311
H       1.127746     -0.972654     -1.628401
H       2.375790      0.225563     -1.258106
H       2.289450     -1.252128     -0.323652
H      -0.690372      1.295023      1.777207
H      -0.872963      0.956722     -1.129489
H      -0.002620      2.286778     -0.296008
H      -2.056918      0.807775      0.896046
H      -0.185421     -1.038636      1.826677
