15
Extracted from Q-Chem output
C       1.735127     -0.409856     -0.697627
C       0.709016      0.225227      0.189060
C      -0.384767      1.167927     -0.331951
N      -1.028846      0.803975      0.980394
C      -0.457628     -0.570724      0.812720
C      -1.281976     -1.396051     -0.087056
N      -1.849524     -2.095980     -0.799666
H       1.305385     -0.959953     -1.547331
H       2.403806      0.352127     -1.103838
H       2.356711     -1.107157     -0.131912
H       0.020218      1.053275      1.443905
H      -1.012910      0.801472     -1.155256
H      -0.181738      2.232484     -0.440006
H      -2.004555      0.980789      1.212638
H      -0.306178     -1.107226      1.749230
