16
Extracted from Q-Chem output
C      -2.597981      0.075580     -0.111342
C      -1.233888      0.732255     -0.278000
C      -0.109976     -0.254694     -0.055546
O       1.124024      0.452487     -0.233031
C       2.283939     -0.183127     -0.069333
O       2.140105     -1.476083      0.262977
N       3.424120      0.337481     -0.202241
H      -2.720085     -0.340947      0.891230
H      -3.398870      0.798332     -0.269600
H      -2.739935     -0.736432     -0.828305
H      -1.137518      1.158465     -1.279724
H      -1.120705      1.558199      0.428605
H      -0.148151     -0.674830      0.952569
H      -0.162592     -1.081100     -0.768966
H       3.349665      1.315571     -0.453948
H       3.034733     -1.821791      0.352978
