20
Extracted from Q-Chem output
C      -1.006278      1.688468      0.529663
C      -0.731497      0.246300      0.863676
N      -0.760405     -0.744560     -0.193282
C      -1.481737     -1.971916      0.059813
C       0.482987     -0.545791      0.518668
C       1.734302     -0.117480     -0.217932
C       1.574226      0.883330     -1.354162
H      -2.063955      1.912769      0.684542
H      -0.425701      2.357385      1.169060
H      -0.768143      1.904566     -0.509080
H      -1.188555     -0.073879      1.801546
H      -1.098027     -2.761638     -0.588833
H      -1.395885     -2.309643      1.104266
H      -2.539469     -1.827899     -0.168761
H       2.445063      0.266241      0.521112
H       0.704030     -1.312521      1.264291
H       2.186611     -1.031587     -0.617463
H       0.763745      0.585778     -2.020697
H       2.494449      0.935814     -1.938566
H       1.363210      1.888170     -0.987825
