11
Extracted from Q-Chem output
C      -1.521721     -0.325469      0.123733
C      -0.220017      0.304670      0.302215
C       1.026808     -0.474978      0.442732
O       1.883822      0.466386     -0.231204
C       0.959252      1.265744     -0.802996
N       0.607657      1.967561     -1.675841
H      -2.267549      0.364349     -0.267358
H      -1.519185     -1.266936     -0.437113
H      -1.816791     -0.579312      1.156334
H       1.289526     -0.600514      1.498779
H       1.107911     -1.438653     -0.074750
