21
smiles: [C:1]([C:2]([C:3]([C:4]([C:5](=[O+:6][C-:7]([H:19])[H:20])[H:17])([H:15])[H:16])([H:13])[H:14])([H:11])[H:12])([H:8])([H:9])[H:10].[H:18][H:21]
C       -3.26473900       0.22635500      -0.77537900
C       -2.20782100      -0.32729200       0.17101700
C       -0.79233000      -0.19870700      -0.37878400
C        0.27365600      -0.75025300       0.57791700
C        1.66398200      -0.65953400       0.06345100
O        2.37313900       0.35682500       0.41090500
C        3.57354900       0.71705100       0.05888600
H       -4.26792800       0.12820600      -0.35647800
H       -3.25083500      -0.30056600      -1.73260700
H       -3.09210600       1.28583400      -0.97992200
H       -2.26751600       0.19202800       1.13347000
H       -2.41872000      -1.38136900       0.38183700
H       -0.72303000      -0.72263400      -1.33852700
H       -0.57100700       0.85322600      -0.58762500
H        0.04313800      -1.79845600       0.79881500
H        0.21935900      -0.21323800       1.52992300
H        2.08952400      -1.34753200      -0.66088000
H        1.90060700       1.10915000      -1.89161100
H        4.12909000       0.10515400      -0.63797400
H        3.94298600       1.60442000       0.53993800
H        2.55496300       1.39766700      -1.68437300
