21
Extracted from Q-Chem output
C      -3.415711     -0.083752     -0.781547
C      -2.259194     -0.311091      0.182389
C      -0.897057     -0.122754     -0.474230
C       0.266149     -0.345262      0.489861
C       1.588176     -0.225005     -0.184471
O       2.586610      0.206323      0.519584
C       3.786985      0.439013      0.025030
H      -4.380005     -0.218643     -0.288516
H      -3.370788     -0.780610     -1.622100
H      -3.391723      0.928416     -1.192565
H      -2.347923      0.375679      1.030787
H      -2.322634     -1.320701      0.602161
H      -0.804737     -0.813062     -1.320662
H      -0.823826      0.884918     -0.895338
H       0.162620     -1.339987      0.946486
H       0.223885      0.378356      1.308119
H       1.818337     -0.811283     -1.070370
H       2.051455      1.316018     -1.367513
H       4.129971     -0.194569     -0.784821
H       4.481288      0.819924      0.758136
H       2.826081      1.494406     -1.238426
