12
Extracted from Q-Chem output
C      -1.919549      0.604738      0.183239
C      -1.131454     -0.681450      0.219403
O       0.203924     -0.447481     -0.281566
C       1.127093     -0.305960      0.615543
C       2.385340     -0.050595     -0.003847
C       3.516212      0.174144     -0.352417
H      -1.478031      1.339735      0.857828
H      -2.946386      0.416304      0.500670
H      -1.941523      1.021564     -0.824409
H      -1.556132     -1.437601     -0.441494
H      -1.036546     -1.078953      1.230142
H       4.513120      0.373344     -0.669410
