12
Extracted from Q-Chem output
O      -1.214442      2.209357     -0.135100
C      -0.712003      1.130570     -0.113954
C      -1.150505     -0.254498     -0.540739
C       0.094463     -0.835077      0.161987
C       1.306521     -0.936975     -0.582400
C       0.619742      0.671800      0.486520
H      -2.120225     -0.546374     -0.136794
H      -1.134974     -0.400431     -1.621416
H      -0.080191     -1.392450      1.083391
H       1.475032      1.022472     -0.105701
H       2.081028     -1.302030      0.116623
H       0.791329      0.852518      1.544813
