11
Extracted from Q-Chem output
C      -0.243886     -1.313107      0.058403
O      -1.152680     -0.353411     -0.463087
C      -0.638088      0.909940     -0.088711
C       0.873656      0.675027     -0.009500
C       1.092572     -0.759068      0.268578
H      -0.495335     -1.582751      1.110557
H      -0.294828     -2.238487     -0.516451
H      -1.033946      1.218696      0.888998
H      -0.941266      1.643469     -0.835223
H       1.462189      1.364717      0.594154
H       1.318274      0.704943     -1.023660
