16
Extracted from Q-Chem output
C       1.918590     -0.211887      0.046973
C       0.586479      0.530434      0.131638
C      -0.314499      0.274259     -1.062418
C      -1.329855     -0.614839     -0.589665
O      -1.213235     -0.933316      0.677952
C      -0.308279      0.028701      1.272129
H       2.474904      0.099793     -0.839010
H       2.543725     -0.013760      0.921528
H       1.757087     -1.290500     -0.025266
H       0.781740      1.595894      0.284909
H      -1.622610      0.789963     -0.872383
H       0.059795      0.174894     -2.072156
H      -1.944412     -1.270711     -1.190205
H      -2.677291      0.523382     -0.470169
H      -0.939071      0.826665      1.674882
H       0.213586     -0.478511      2.081413
