13
Extracted from Q-Chem output
C      -1.038545      0.749984      0.566247
C      -0.316978     -1.471230     -0.262104
O       0.087961     -1.969740     -1.275448
C       0.164367     -0.164340      0.320298
C       1.240184      0.485601     -0.533162
H      -0.731780      1.647332      1.104898
H      -1.810716      0.252478      1.157307
H      -1.485825      1.063342     -0.379988
H      -1.114370     -1.974351      0.328504
H       0.581514     -0.432611      1.301323
H       0.844132      0.752335     -1.514739
H       1.612369      1.393957     -0.056488
H       2.078896     -0.191478     -0.694162
