10
Extracted from Q-Chem output
N       0.239279      0.956907      0.223394
C       1.124078     -0.186247      0.489947
C       0.287213     -1.415861      0.417616
C      -0.984042     -0.921836      0.121636
C      -0.969573      0.473083      0.017365
H       0.483407      1.930955      0.199198
H       1.929309     -0.221757     -0.249407
H       1.582251     -0.087035      1.478205
H      -1.882695     -1.508453     -0.014221
H      -1.791453      1.147548     -0.200292
