10
Extracted from Q-Chem output
C       0.816400      0.477660     -0.363414
C       0.984248     -0.797417      0.277466
N      -0.160472     -1.354492      0.630227
C      -0.852375     -0.531153     -0.209307
C      -1.225029      0.753560      0.364237
N      -0.155921      1.426146      0.120626
H       1.616156      0.913460     -0.950711
H       1.947064     -1.267190      0.470314
H      -0.895383     -0.704865     -1.283273
H      -2.074282      1.083022      0.946207
