17
Extracted from Q-Chem output
O       1.962868     -1.098894      0.883714
C       1.302268     -0.519088     -0.221584
C      -0.135897     -1.248852     -0.385109
C      -1.186127     -0.457174      0.243685
C      -1.336297      0.886545     -0.303147
C       0.053508      1.588490     -0.376618
C       1.210345      0.951340     -0.168579
H       2.518217     -0.407428      1.253388
H       1.832929     -0.785676     -1.142239
H      -0.077691     -2.277012     -0.032454
H      -0.283308     -1.237334     -1.468364
H      -0.417430     -0.018789      1.531759
H      -1.956020     -0.910745      0.856542
H      -1.624717      0.816282     -1.359751
H      -2.083122      1.491799      0.213178
H      -0.009473      2.635274     -0.663716
H       0.149270      0.558007      1.380518
