16
smiles: [C:1]([C:2]([C:3]([H:11])([H:12])[H:13])([C:4](=[O:5])[H:15])[C:6]#[N:7])([H:8])([H:9])[H:10].[H:14][H:16]
C       -1.48425700      -0.78042500       0.73357900
C       -0.30260700      -0.04331500       0.07367400
C       -0.29083300      -0.22974100      -1.44202600
C        0.97583100      -0.60174100       0.71523500
O        1.72908300      -1.33657800       0.15101300
C       -0.37706100       1.38270100       0.41967700
N       -0.42605400       2.49383200       0.70152700
H       -1.42840500      -1.84235300       0.49094500
H       -1.47210200      -0.66477300       1.81828800
H       -2.42710300      -0.38277600       0.35867600
H       -1.21305800       0.15657700      -1.87576200
H       -0.20124100      -1.28985900      -1.67582100
H        0.55435900       0.28836200      -1.89341100
H        2.39392100       2.05320700      -0.38431500
H        1.13274500      -0.30406200       1.77138400
H        2.89129700       1.52387700      -0.54800500
