16
Extracted from Q-Chem output
C      -1.135026     -0.916093      0.693200
C      -0.251283      0.162399      0.047010
C      -0.313939      0.092113     -1.478032
C       1.179170     -0.122996      0.554936
O       1.804642     -1.181108      0.085070
C      -0.650877      1.494102      0.518203
N      -0.928212      2.542829      0.892731
H      -0.780127     -1.897170      0.379010
H      -1.101506     -0.858717      1.781979
H      -2.169047     -0.788875      0.374253
H      -1.339924      0.217147     -1.822984
H       0.061276     -0.877965     -1.801144
H       0.295629      0.874978     -1.934001
H       1.830847      1.020736      0.074539
H       1.298327      0.136815      1.621319
H       2.192141      0.158369     -0.171423
