19
smiles: [C:1]([C:2]([C@@:3]([O:4][H:14])([C:6]([C:5](=[O:7])[H:15])([H:16])[H:18])[H:13])([H:11])[H:12])([H:8])([H:9])[H:10].[H:17][H:19]
C        2.37533800      -0.26042500       1.10927100
C        1.17576000       0.57378600       0.68379500
C        0.33403500      -0.11638800      -0.38972100
O       -0.16178000      -1.36929500       0.03679400
C       -1.91005500       1.03585200       0.07076400
C       -0.80092900       0.76953700      -0.90660900
O       -2.05214600       0.47764800       1.12862200
H        2.05490700      -1.23100300       1.48880300
H        3.04946600      -0.43936300       0.26789600
H        2.94470100       0.24196800       1.89282300
H        0.54309200       0.78989100       1.54971800
H        1.51411900       1.53911900       0.29230600
H        0.98777400      -0.34462400      -1.23780100
H       -0.78569700      -1.19280000       0.75001200
H       -2.65053400       1.79637600      -0.25093700
H       -1.27713700       0.29719900      -1.77502200
H       -2.79707500      -2.20246900      -1.83518700
H       -0.42498600       1.73380100      -1.26462600
H       -2.16051900      -2.16828500      -1.45046400
