19
Extracted from Q-Chem output
C       2.374776      0.234877      1.302072
C       0.939367      0.627538      0.980671
C       0.377699     -0.210192     -0.164085
O       0.324033     -1.559834      0.078068
C      -1.269442      0.286699     -0.258669
C      -1.231395      0.045217     -1.670050
O      -1.991233     -0.543943      0.444024
H       2.437867     -0.823800      1.554092
H       3.037919      0.419907      0.453511
H       2.748663      0.811357      2.149611
H       0.292745      0.483080      1.850000
H       0.885684      1.684557      0.705613
H       0.983739     -0.045275     -1.061735
H      -0.544130     -1.695235      0.513664
H      -1.295010      1.350423      0.013278
H      -1.103126     -0.978548     -2.000970
H      -3.024598     -0.359831     -1.573911
H      -0.969963      0.827928     -2.378733
H      -2.996991     -0.602944     -0.767436
