12
Extracted from Q-Chem output
N       2.633614      1.325248      0.599374
C       1.879139      0.484535      0.396643
C       0.939765     -0.597542      0.095187
O      -0.076233     -0.605764      1.327650
C      -1.116538     -0.122431      0.727265
C      -0.942486      0.641466     -0.513808
C       0.028016     -0.389636     -1.016115
H       1.429418     -1.565112      0.160805
H      -2.064333     -0.302348      1.232105
H      -1.869729      0.732644     -1.074235
H      -0.517688      1.641578     -0.345318
H      -0.298704     -1.241058     -1.594524
