18
Extracted from Q-Chem output
C       2.707580     -0.143446      0.104585
C       1.293213      0.199538      0.421669
O       0.382882     -0.381383     -0.330060
C      -0.900901     -0.083744     -0.283612
C      -1.718819     -0.820489     -1.294595
C      -1.491632      0.264458      1.042658
H       2.849838     -0.220090     -0.974222
H       3.030310     -1.088754      0.556909
H       3.369226      0.639618      0.477365
H       1.007348      0.469165      1.431566
H       0.482845      1.791347     -0.304581
H      -0.259885      1.658153     -0.618177
H      -2.603124     -0.239280     -1.560437
H      -2.067463     -1.790564     -0.916577
H      -1.139322     -0.995645     -2.200444
H      -1.087805      1.190844      1.456228
H      -1.291535     -0.533825      1.774102
H      -2.571559      0.375440      0.950987
