17
smiles: [C:1]([C:2](=[O:3])[H:11])([H:8])([H:9])[H:10].[C:4]1([H:13])=[C:5]([H:14])[C:6]([H:16])([H:17])[O:7]1.[H:12][H:15]
C       -2.12176000      -0.47738500       0.21483400
C       -2.05335600       1.01385900       0.08189900
O       -1.17172200       1.69759300       0.52352900
C        1.27890900      -1.78086200      -0.26238000
C        1.80632200      -0.61451600      -0.62476200
C        1.66236500      -0.20867700       0.81708400
O        1.09552200      -1.53188500       1.07800200
H       -3.05536300      -0.75743500       0.70959800
H       -2.14250400      -0.92995600      -0.78012500
H       -1.27021300      -0.85382300       0.77826700
H       -2.89672800       1.48032800      -0.47041000
H        0.89313700       2.70133500      -0.85023700
H        0.99955300      -2.73187000      -0.69545000
H        2.17262700      -0.16018800      -1.52758700
H        1.43650400       2.87797700      -1.32763500
H        0.93117100       0.56641600       1.04815700
H        2.57819200      -0.07055100       1.39240000
