13
Extracted from Q-Chem output
O       1.464439      1.895213     -0.072145
C       0.787048      0.895918     -0.044445
C       1.464623     -0.462507      0.139619
O       0.989492     -1.492566     -0.699874
C      -1.591861     -0.134081     -0.544784
C      -1.576358      0.081449      0.717929
C      -0.702551      0.998077     -0.109017
H       1.392415     -0.735235      1.201091
H       2.519438     -0.313405     -0.087414
H      -1.958582     -0.656987     -1.409684
H       0.206124     -1.880130     -0.306917
H      -1.921182     -0.126224      1.714933
H      -1.021233      2.024157     -0.284728
