13
Extracted from Q-Chem output
O       1.474573      1.961780      0.441640
C       0.812250      0.993147      0.189353
C       1.441656     -0.378837     -0.084315
O       0.361139     -1.323574     -0.248106
C      -1.007839     -0.437896     -0.537479
C      -1.382290     -0.211785      0.809225
C      -0.645083      0.892561     -0.012404
H       2.088925     -0.706864      0.726066
H       2.008510     -0.343004     -1.014212
H      -1.428410     -0.764228     -1.476428
H      -0.109988     -1.335963      0.704629
H      -2.408049     -0.027962      1.098698
H      -1.153584      1.776301     -0.382106
