14
smiles: [O:1]=[N:2][C:3]1=[C:6]([H:13])[C:5]([H:11])([H:12])[C:4]1([H:9])[H:10].[O:7]([H:8])[H:14]
O        2.06629900       1.03787300      -0.13519700
N        1.85112200      -0.06961900      -0.55711400
C        0.50817800      -0.49853700      -0.36926500
C       -0.16183600      -1.78555500      -0.77080700
C       -1.42896300      -1.15932200      -0.10664000
C       -0.57303000       0.04354700       0.20335300
O        0.29644100       2.84133700       1.31905800
H        0.99637800       2.36373600       0.87215800
H        0.21433600      -2.68675100      -0.28586500
H       -0.24601100      -1.96109500      -1.84374900
H       -1.80503100      -1.69538600       0.76652800
H       -2.25953200      -0.96996200      -0.78900800
H       -0.76176700       0.98416100       0.70260900
H        0.55328200       3.76359600       1.28168700
