14
Extracted from Q-Chem output
O       2.087060      1.349742     -0.350294
N       1.893816      0.152516     -0.754580
C       0.641265     -0.233276     -0.628128
C      -0.076137     -1.559682     -0.503806
C      -1.252539     -0.726751      0.108414
C      -0.466073      0.525859     -0.194666
O       0.218499      1.388886      1.349610
H       1.066672      1.551441      0.760803
H       0.374714     -2.293833      0.164145
H      -0.339938     -2.040560     -1.445986
H      -1.389477     -0.886161      1.177285
H      -2.218935     -0.795369     -0.392250
H      -0.841102      1.455361     -0.607803
H      -0.203253      2.244614      1.474269
