15
Extracted from Q-Chem output
C      -1.497069     -1.116973      0.039978
C      -1.175404      1.364925      0.587357
C      -0.237666      2.083345     -0.029469
N       0.940472      1.265918     -0.422835
C       0.751147      0.036289     -0.058361
N       1.601524     -0.979112     -0.251360
C      -0.590892     -0.040431      0.635313
H      -1.070181     -2.123330      0.106624
H      -2.443176     -1.109260      0.577885
H      -1.710512     -0.898154     -1.007706
H      -0.165043      3.127892     -0.300387
H       1.762220      1.598585     -0.903885
H       1.322917     -1.903757      0.017607
H       2.464287     -0.879410     -0.753510
H      -0.380717     -0.289250      1.684363
