10
Extracted from Q-Chem output
N       1.734392      0.430384     -0.695159
C       0.565513      0.623062     -0.074961
N      -0.000286      1.247033      0.846421
C      -0.847680      0.331953     -0.053239
C      -1.319421     -0.950234      0.537565
O      -0.632497     -1.666753      1.215661
H       2.566701      0.747492     -0.227214
H       1.825602     -0.383322     -1.275078
H      -1.532881      0.830291     -0.735400
H      -2.370447     -1.220697      0.308743
