14
Extracted from Q-Chem output
O      -1.415000      1.438655      0.612376
C      -0.622207      0.574101     -0.175851
C      -0.639447     -0.835698      0.397563
C       0.689422     -1.409889     -0.104953
C       1.686454     -0.330967     -0.299475
C       0.879902      0.900470     -0.179999
H      -1.452150      2.298639      0.190620
H       1.165217      1.159169      0.861083
H      -0.996599      0.561499     -1.209539
H      -1.515083     -1.412040      0.100147
H      -0.639802     -0.763761      1.488909
H       1.068764     -2.302445      0.393374
H       0.599745     -1.704009     -1.171631
H       1.210771      1.742526     -0.790627
