12
smiles: [C:3]1([H:7])([H:8])[C:4]([H:9])([H:10])[C:5]1([H:11])[H:12].[O:1]=[C:2]=[O:6]
O        1.79132800       2.02973800      -1.27323700
C        1.89420000       1.98488300      -0.12243900
C        0.21180000      -0.86449100      -0.09040000
C       -1.21334000      -1.28448400       0.10639700
C       -0.85580100       0.17088900       0.09426000
O        1.99741700       1.94039300       1.02834900
H        0.64382700      -0.97820300      -1.07598000
H        0.90763100      -1.02913800       0.72169300
H       -1.74665900      -1.68389300      -0.74612700
H       -1.48625000      -1.73298500       1.05251900
H       -0.88440100       0.70901300       1.03255700
H       -1.14757500       0.75939900      -0.76566500
