13
Extracted from Q-Chem output
C      -1.001443      0.920211      0.213881
C      -0.912551     -0.524829     -0.147412
C      -0.176582      0.505628     -0.951498
N       1.134234     -0.164865     -0.667729
C       1.409349     -0.392066      1.039911
C       0.472276     -1.145961      0.211458
H      -0.573908      1.324705      1.122147
H      -1.931689      1.390237     -0.080739
H      -1.763166     -1.117863     -0.444563
H      -0.325407      0.859603     -1.960900
H       0.956951      0.453618      1.556379
H       2.084779      0.091690     -0.049194
H       0.614653     -2.203557      0.008469
