18
Extracted from Q-Chem output
C      -2.063366     -0.640565     -1.025560
C      -1.420880      0.084983      0.151816
C       0.063793      0.400978     -0.013530
C       0.773944      1.170422      1.106107
N       0.858506     -0.833582     -0.023735
C       2.122304     -0.645681      0.343517
O       3.000443      0.193728     -0.186581
H      -1.960270     -0.061103     -1.945956
H      -1.602731     -1.616414     -1.203082
H      -3.128615     -0.808594     -0.856902
H      -1.921589      1.041895      0.319605
H      -1.552712     -0.486017      1.078866
H       0.193185      0.908763     -0.977552
H       2.564752      1.060813     -0.090843
H       0.594238      2.252162      1.082587
H       0.433775      0.789134      2.075941
H       0.428641     -1.688040      0.295013
H       2.610399     -1.517887      0.776980
