8
smiles: [N:1]([C:2]#[N:3])([H:7])[H:8].[O:4]=[N+:5]=[N-:6]
N        1.70302900       0.20558400      -0.26925100
C        0.68112200       0.99092000      -0.63371500
N       -0.18916200       1.65396600      -0.99214700
O       -3.13026600      -0.63913600       0.31377400
N       -2.02381200      -0.97965400       0.52069900
N       -0.97515500      -1.30259100       0.71694300
H        1.44758800      -0.61611000       0.25384000
H        2.50772000       0.68887000       0.09536800
