8
Extracted from Q-Chem output
N       1.457327      0.078859     -0.142098
C       0.134726      0.213505     -0.358596
N      -0.678382      0.698566     -1.099697
O      -2.348001     -0.063683     -0.184079
N      -1.751575     -0.641813      0.679183
N      -0.619376     -0.761295      0.944844
H       1.740754     -0.258577      0.760002
H       2.064530      0.734440     -0.599559
