15
smiles: [C:1](=[C:2]1[C:3]([H:10])([H:11])[C:4]([H:12])([H:13])[C:5]1([H:14])[H:15])([H:7])[H:8].[H:6][H:9]
C        1.89541700      -0.47113400      -0.01093500
C        0.59469500      -0.43214800      -0.23092200
C       -0.59829400      -1.12783700       0.39273500
C       -1.49097000      -0.00504300      -0.19516200
C       -0.30225500       0.44123400      -1.08481000
H        0.32707900       2.34311000       2.06588000
H        2.32343400      -1.15498200       0.71328000
H        2.57663900       0.18058500      -0.54606700
H        0.62653900       1.73883400       1.75035000
H       -0.79367900      -2.09824800      -0.07000200
H       -0.58956900      -1.25392700       1.47581800
H       -1.74601300       0.74642300       0.55177600
H       -2.40048500      -0.31669900      -0.70717900
H       -0.06896300       1.50578100      -1.12209300
H       -0.38573600       0.06605000      -2.10764400
