13
Extracted from Q-Chem output
C       2.022653     -0.209498     -0.081235
C       0.543502     -0.120980     -0.159918
N      -0.254451     -0.525558     -1.145022
C      -1.625067     -0.312260     -0.939385
C      -1.574781      0.273676      0.292550
O      -2.558201      0.742353      1.098148
N      -0.280336      0.389672      0.762543
H       2.410540     -0.673182     -0.987649
H       2.343890     -0.815754      0.768333
H       2.480272      0.777877      0.009698
H       0.103598     -0.955041     -1.980660
H      -3.378398      0.588568      0.620119
H       0.000616      0.787959      1.641831
