14
Extracted from Q-Chem output
O       0.704601      1.703529      2.073258
C       0.566156      0.537215      1.514666
C       0.834683     -0.180996     -0.856135
C      -0.030111      0.628242      0.154079
C      -1.135160     -0.447530     -0.034838
C      -0.077911     -1.398822     -0.624261
H       0.387326      2.439869      1.508837
H       1.893948     -0.284991     -0.623878
H       0.725942      0.234163     -1.858600
H      -0.290506      1.662149     -0.138061
H      -1.664623     -0.767575      0.861704
H      -1.858136     -0.119886     -0.782457
H       0.330071     -2.058058      0.140530
H      -0.360570     -1.989376     -1.495182
