14
Extracted from Q-Chem output
C      -2.097388     -0.851455     -0.320592
N      -1.815051      0.518441      0.020033
C      -0.500078     -0.035720     -0.005095
C       0.629951      0.289901      0.994335
C       1.636094     -0.340536      0.015374
C       0.679443      0.564384     -0.781562
O       0.794496      1.564129      0.294872
H      -0.671901     -1.214830     -0.028870
H      -1.929393     -0.909467     -1.412108
H      -2.091989      0.692866      0.980091
H       0.608773      0.294629      2.081594
H       1.593273     -1.417072     -0.152143
H       2.647831      0.045771      0.106867
H       0.723145      0.911509     -1.809883
