15
smiles: [C:1]([H:8])([H:9])([H:10])[H:13].[C:2]1([H:11])=[N+:6]([C-:7]([H:14])[H:15])[C@@:3]1([C:4]#[N:5])[H:12]
C       -2.14586400      -0.72394600       0.88982400
C        0.54915900       0.14259100      -1.72668100
C        1.13746800       1.17363500      -0.83689800
C        0.27793200       2.03989200      -0.04580000
N       -0.37532100       2.74023700       0.58526300
N        1.09201500      -0.25556400      -0.58688900
C        1.52399700      -1.09051000       0.29352500
H       -2.12722200       0.27356800       1.32624900
H       -1.75871200      -0.68308200      -0.12714400
H       -3.16972800      -1.09447500       0.87448900
H        0.80727200      -0.18473300      -2.72084400
H        2.14950700       1.56347000      -0.95453900
H       -1.52709500      -1.39182100       1.48718400
H        1.89032800      -0.70645500       1.23238200
H        1.45534000      -2.14803600       0.08586900
