15
Extracted from Q-Chem output
C      -1.513041     -0.609277     -0.071355
C      -0.595706      0.551933      0.099537
O      -1.109815      1.782893     -0.019958
C       0.724521      0.451932      0.687496
C       1.632531     -0.629573      0.487604
C       1.138077     -0.129910     -1.883033
O       1.939593      0.033084     -2.669825
H      -2.463826     -0.445342      0.451028
H      -1.730152     -0.772824     -1.127163
H      -1.052272     -1.516402      0.316699
H      -2.070684      1.745221     -0.052753
H       1.171531      1.436234      0.825261
H       0.028894      0.319199      1.614315
H       2.585798     -0.564185      0.996974
H       1.245507     -1.633034      0.349842
