11
Extracted from Q-Chem output
C      -1.159965      1.232187     -0.054019
N       0.273203      1.174939     -0.329427
C       1.080293      0.140630     -0.266501
O       0.304856     -0.932384      0.107199
C       0.929770     -2.131961      0.309981
O       2.093519     -2.340999      0.319352
H      -1.707892      0.569996     -0.723462
H      -1.366083      0.934861      0.973633
H      -1.503477      2.253543     -0.204043
H       0.721544      2.029913     -0.608988
H       0.148556     -2.885882      0.481962
