14
Extracted from Q-Chem output
C      -0.737206     -0.202524     -1.022149
C      -0.346319      0.970432     -0.074896
C      -0.673612     -0.016257      1.084704
C      -0.028955     -1.028140      0.092390
C       1.385344     -0.454813     -0.001689
C       1.177670      0.853394     -0.110273
H      -0.291315     -0.215014     -2.016954
H      -1.814406     -0.377264     -1.070130
H      -0.798668      1.957090     -0.147975
H      -1.745172     -0.175425      1.224932
H      -0.171039      0.141858      2.039137
H      -0.153242     -2.104425      0.191751
H       2.310566     -1.011631      0.017100
H       1.886356      1.662720     -0.205948
