14
Extracted from Q-Chem output
C      -0.800230     -0.255299     -0.958838
C      -0.421550      1.018468     -0.203172
C      -0.803694     -0.481503      1.313799
C      -0.033790     -1.057149      0.111768
C       1.344439     -0.385384      0.022179
C       1.085152      0.909485     -0.102068
H      -0.397065     -0.298976     -1.970921
H      -1.869180     -0.463865     -0.944984
H      -0.873059      1.984565     -0.430312
H      -1.076444      0.727968      0.845233
H      -0.090730     -0.223223      2.112526
H      -0.048927     -2.146474      0.072819
H       2.305058     -0.875375      0.097088
H       1.765898      1.746421     -0.146779
