15
Extracted from Q-Chem output
C      -1.251928     -1.189399     -0.259442
C      -0.355885     -0.060614     -0.676494
C      -0.536557      0.689943     -1.757217
N      -0.510163      0.603978      2.028694
C       0.826574      0.203911      0.171366
O       0.776211      0.404817      1.407390
N       2.047995      0.261514     -0.407475
H      -1.557709     -1.034308      0.776065
H      -2.126330     -1.236399     -0.907372
H      -0.719529     -2.142237     -0.323644
H       0.135074      1.502384     -2.006571
H      -1.390225      0.531153     -2.405052
H      -0.184828      0.638294      2.993817
H       2.175685     -0.175741     -1.300799
H       2.851132      0.378980      0.185727
