15
Extracted from Q-Chem output
C      -1.033222     -1.132040     -0.109906
C      -0.358540      0.245737     -0.149360
C      -0.717526      1.048421     -1.264424
N      -0.424031      0.935549      1.250749
C       1.100036      0.048102      0.246217
O       1.096148      0.321681      1.485922
N       2.114984     -0.258126     -0.505996
H      -2.114212     -0.989129     -0.101591
H      -0.773805     -1.709277     -0.996796
H      -0.749381     -1.708212      0.774879
H      -0.382397      2.077005     -1.301997
H      -1.594469      0.780461     -1.837390
H      -1.016097      0.386170      1.889141
H       1.902835     -0.269688     -1.499687
H       3.066868     -0.268000     -0.182351
