13
Extracted from Q-Chem output
C       2.530582     -0.708168      0.198614
C       1.328122     -0.229932      0.523500
C       0.723735      0.929367      0.937639
C      -0.446626      1.454921      0.719261
C      -1.308214      0.720976     -0.311777
O      -0.759693     -0.523876     -0.665021
C       0.026144     -1.137982      0.305336
H       2.542634     -1.437672     -0.615505
H      -0.904707      2.232290      1.315777
H      -2.288386      0.580175      0.160836
H      -1.441489      1.275201     -1.241452
H       0.314225     -2.105457     -0.094816
H      -0.473770     -1.242150      1.272482
