14
Extracted from Q-Chem output
N       1.717708     -1.610134      0.163756
C       0.928932     -0.679860     -0.148694
O       1.345270      0.400849     -0.855422
C       0.406986      1.425525     -1.219553
C      -1.002017      1.159110     -1.419844
C      -1.400630     -0.146993     -0.890526
C      -0.522106     -0.709716      0.228192
H       2.659062     -1.406635     -0.166748
H       0.869187      1.961112     -2.049090
H       0.312687      2.178522     -0.406538
H      -0.662180     -0.099440      1.126417
H      -1.274831     -0.744693     -1.817998
H      -2.466430     -0.206219     -0.665400
H      -0.780125     -1.733145      0.491239
