14
Extracted from Q-Chem output
N       2.227683     -0.292658      0.757612
C       1.505003     -0.478973     -0.164944
O       0.933869     -1.329816     -1.016238
C      -0.342145     -0.624508     -1.051293
C      -1.123381     -0.626322      0.305367
C      -0.624417      0.813871      0.496600
C       0.089729      0.763168     -0.698168
H       1.328906      0.640293      1.490634
H      -0.882508     -0.890081     -1.957575
H      -0.787537     -1.366341      1.031064
H      -2.205055     -0.706684      0.186600
H       0.495156      0.945555      1.580825
H      -1.153848      1.631510      0.968709
H       0.510221      1.543608     -1.319567
