12
Extracted from Q-Chem output
C       1.088312     -0.311316     -0.589376
C       0.356343      1.066373     -0.552241
C      -1.067321      0.559630     -0.379368
O      -1.153227     -0.848457     -0.640572
C      -0.010103     -0.977825      0.228429
C      -0.381340      0.357402      0.934363
H       2.059292     -0.264726     -0.098523
H       1.192979     -0.713837     -1.597176
H       0.542546      1.218433      0.760707
H      -1.940864      1.154188     -0.606401
H       0.077077     -1.957498      0.692964
H      -0.755772      0.635873      1.912580
