16
Extracted from Q-Chem output
C       2.579729     -0.153549     -0.352517
C       1.117190     -0.150794     -0.050030
C       0.142546     -1.065373     -0.251621
C      -1.098068     -0.411462      0.317749
C      -2.361155     -0.467747     -0.537386
C      -0.692079      0.949379      0.762528
N       0.576453      1.046803      0.556628
H       3.196113     -0.060677      0.547650
H       2.818674     -1.104442     -0.823815
H       2.867823      0.646716     -1.042231
H      -1.291812     -0.954473      1.260583
H      -2.203547      0.048621     -1.485239
H      -3.221674     -0.019496     -0.034724
H      -2.585185     -1.509103     -0.762460
H      -1.262135      1.753939      1.210235
H       1.115584      1.867221      0.804931
