11
Extracted from Q-Chem output
C      -0.752601      0.073877     -0.883017
N      -1.031732     -1.053078      0.009641
C       0.029363     -0.836243      0.855243
O       0.423514     -1.397007      1.837419
C       0.438835      0.357860      0.020636
C       1.421067      1.230779      0.088031
H      -0.500700     -0.213787     -1.905959
H       2.148656      1.160258      0.887653
H      -1.525659      0.845159     -0.887642
H      -1.752044     -1.753462      0.008553
H       1.536488      2.027661     -0.636795
