11
Extracted from Q-Chem output
C      -0.794660      0.257916     -0.744449
N      -0.912932     -0.916502      0.034096
C       0.253867     -0.933431      0.787411
O       0.636654     -1.729164      1.587879
C       0.843346      0.336160      0.221270
C       2.068914      0.818865      0.000061
H      -0.460786      0.147759     -1.771654
H       0.049658      1.160487      0.302746
H      -1.592396      0.995418     -0.634176
H      -1.776311     -1.347393      0.317723
H       2.119836      1.651900     -0.707145
