14
Extracted from Q-Chem output
C      -1.065346     -1.073012     -0.357115
C      -0.403811      0.311669     -0.242098
C      -1.075689      1.059538      0.884691
O      -0.582578      1.406403      1.921728
C       1.100511      0.190837     -0.170149
O       1.575185     -0.243131     -1.360007
N       1.892754      0.407422      0.781019
H      -0.836269     -1.680215      0.519918
H      -2.149899     -0.978001     -0.438212
H      -0.698202     -1.588090     -1.242537
H      -0.642251      0.865474     -1.157821
H      -2.150450      1.258692      0.687708
H       1.396564      0.741032      1.600502
H       2.531481     -0.319661     -1.254311
