14
Extracted from Q-Chem output
C      -1.163603     -1.103838     -0.359742
C      -0.445681      0.252008     -0.290355
C      -0.969709      1.048784      0.883123
O      -0.322069      1.522462      1.774234
C       1.041898      0.078370     -0.346295
O       1.597598     -0.548199     -1.322851
N       1.978336      0.462053      0.461115
H      -0.901528     -1.725305      0.497672
H      -2.245934     -0.963920     -0.366797
H      -0.873409     -1.629718     -1.266841
H      -0.725482      0.818363     -1.188028
H      -2.073222      1.168624      0.870718
H       1.803372      0.984751      1.306143
H       2.569802     -0.177868     -0.538640
