11
Extracted from Q-Chem output
C      -1.830852      0.223063      0.332987
N      -0.439330      0.000833     -0.012905
C       0.545074      0.224612      0.824011
C       1.872080     -0.032551      0.370273
N       2.005785     -0.474777     -0.865919
N       1.841451     -0.828864     -1.917759
H      -2.394749     -0.711177      0.283128
H      -1.864222      0.611357      1.347534
H      -2.285892      0.945849     -0.347901
H      -0.300576     -0.348115     -0.964225
H       2.772215      0.101492      0.944675
