15
Extracted from Q-Chem output
C      -2.861725     -0.149086     -0.117790
C      -1.401211     -0.502472      0.029719
O      -0.661356      0.738202      0.069842
C       0.655846      0.693650      0.234926
O       1.169711     -0.460119      0.336236
C       2.685392      0.710791     -0.023817
O       3.451077     -0.231740     -0.560657
H      -3.203047      0.451306      0.726438
H      -3.032763      0.419325     -1.032881
H      -3.463659     -1.058947     -0.159156
H      -1.043913     -1.105428     -0.807228
H      -1.213011     -1.065710      0.945773
H       2.590500      1.537947     -0.710807
H       2.810181      0.960281      1.021035
H       3.528238     -0.976810      0.044635
