18
Extracted from Q-Chem output
C       1.953795     -0.323473     -0.357086
O       1.170517     -0.034146      0.742424
C      -0.115402     -0.168106      0.627780
C      -0.147448      1.128739     -1.372094
C      -0.698458     -1.405129      0.023731
C      -0.919318      0.585361      1.628152
H       0.959020      0.420180     -1.138143
H       1.906115     -1.362582     -0.682008
H       2.966354      0.019132     -0.168564
H       0.154828      1.311636     -2.408736
H      -1.179674      0.778581     -1.413285
H      -0.113353      2.082722     -0.843488
H      -0.242494     -1.663084     -0.929323
H      -0.556117     -2.247078      0.712848
H      -1.769541     -1.274634     -0.128149
H      -1.277040     -0.067346      2.431093
H      -0.330751      1.392532      2.060009
H      -1.799371      1.010790      1.138733
