15
Extracted from Q-Chem output
O       2.066650     -0.850193     -0.586584
C       1.151200     -0.377341      0.412005
C       0.630802      1.027437      0.030195
C      -0.732407      0.741819     -0.570629
C      -1.762114      0.256576      0.338182
C      -0.099360     -1.171694      0.583927
O      -0.851262     -0.681684     -0.796906
H       1.547757     -1.262391     -1.281818
H       1.719301     -0.353581      1.343019
H       0.529176      1.677353      0.901324
H       1.303999      1.502759     -0.681891
H      -1.040687      1.305722     -1.445601
H      -1.715375      0.304201      1.411811
H      -2.743477      0.104003     -0.098106
H       0.025735     -2.241627      0.406672
