12
Extracted from Q-Chem output
O      -1.931907     -1.385721     -0.093963
C      -0.958343     -0.687339     -0.049580
C       0.489384     -1.172856     -0.049230
C       1.278329      0.099700      0.037031
C       0.503194      1.177784      0.073020
C      -0.956837      0.838085      0.017265
H       0.683790     -1.748873     -0.958741
H       0.653259     -1.852998      0.791288
H       2.360321      0.120230      0.065958
H       0.868871      2.194813      0.134701
H      -1.522206      1.171412      0.892071
H      -1.467853      1.245763     -0.859821
