12
Extracted from Q-Chem output
O      -1.810387     -1.360198     -0.566708
C      -0.925805     -0.642068     -0.196204
C       0.525948     -1.054045      0.039241
C       1.218162      0.280778      0.161394
C       0.378401      1.405348      0.269980
C      -1.015618      0.852787      0.101139
H       0.897026     -1.706915     -0.750719
H       0.593402     -1.609241      0.979581
H       2.290214      0.354382      0.329697
H       1.115655      1.047360     -0.815705
H      -1.510496      0.982270      1.071731
H      -1.640808      1.385747     -0.616126
