15
Extracted from Q-Chem output
O       2.343902      0.397925      0.020839
C       1.323079     -0.530247     -0.290115
C       0.051749     -0.065957      0.401897
C      -0.476433      1.267907     -0.126110
C      -1.977408     -0.456903     -0.879517
C      -1.087186     -1.011188      0.102314
O      -1.264403     -2.143708      0.504513
H       3.143255      0.148987     -0.444693
H       1.571863     -1.535840      0.065233
H       1.152594     -0.582123     -1.373767
H       0.236877     -0.035588      1.477169
H      -1.017010      1.840201      0.624245
H       0.297309      1.886659     -0.578992
H      -1.184803      1.062690     -0.985782
H      -2.922367     -0.070026     -0.481480
