11
Extracted from Q-Chem output
O       0.111548      1.605706      0.048106
C      -0.229415      0.349435      0.619643
C      -1.135548      1.024316     -0.307713
N       0.519519     -1.917462      0.725098
C       0.599400     -0.803463      0.148554
O       1.375381     -0.534346     -0.918526
H       1.352581      0.423336     -1.064362
H      -0.450597      0.349868      1.680434
H      -2.009649      1.532277      0.084828
H      -1.208810      0.671948     -1.332211
H       1.124040     -2.604039      0.280203
