13
Extracted from Q-Chem output
C      -1.427949     -0.622677      0.075247
C      -1.368177      0.907519      0.202751
C       0.002232      0.653825      0.616256
N       1.080361      1.293535      0.109918
C       1.855314      0.221943     -0.352962
C       1.233621     -0.966376     -0.156187
N       0.039960     -0.692036      0.539415
H      -1.486247     -1.007961     -0.940152
H      -2.088173     -1.178446      0.741867
H      -0.051091      1.529550     -0.531725
H      -2.093891      1.488553      0.756164
H       2.837743      0.389525     -0.767566
H       1.569065     -1.968679     -0.365313
