10
Extracted from Q-Chem output
O       2.178249     -0.882267     -0.298429
C       1.088845     -0.419581      0.004037
C       0.505750      0.938393     -0.217359
O      -0.753437      0.998473     -0.226016
C      -1.218888     -0.460539     -0.029514
O      -0.177728     -1.210712     -0.380279
H       1.062424      1.870148     -0.162952
H       0.899386     -0.180861      1.174851
H      -2.097666     -0.585680     -0.658921
H      -1.458462     -0.455794      1.045822
