16
Extracted from Q-Chem output
C      -1.295029     -0.093308      1.122523
C      -1.151806     -0.197154     -0.376136
N      -0.859879      1.078913     -1.087382
C       0.089425     -0.140562     -1.168616
C       1.366176      0.143369     -0.419006
C       1.923867     -1.069865      0.276032
O       1.285065     -2.027503      0.617304
H      -0.501981      0.499823      1.580804
H      -2.258842      0.333532      1.411201
H      -1.226166     -1.098406      1.538622
H      -1.981131     -0.732094     -0.835670
H      -1.371272      1.322350     -1.920372
H      -0.662559      1.865544     -0.479500
H       1.311257      0.902175      0.392032
H       2.142262      0.516289     -1.095009
H       3.011054     -1.018932      0.500539
