16
Extracted from Q-Chem output
C      -1.239802     -0.191930      1.141807
C      -1.153570     -0.027491     -0.355880
N      -1.006242      1.381764     -0.814794
C       0.110778     -0.050198     -1.133897
C       1.355967      0.221435     -0.314764
C       1.876201     -1.045051      0.317442
O       1.262511     -2.069862      0.427590
H      -0.468759      0.370343      1.666531
H      -2.207798      0.161543      1.500850
H      -1.139635     -1.246250      1.400639
H      -1.973026     -0.545269     -0.852835
H      -1.706844      1.496018     -1.549755
H      -0.175877      1.187988     -1.628605
H       1.232271      0.942725      0.505134
H       2.161989      0.611398     -0.943648
H       2.913512     -0.967253      0.704098
