11
Extracted from Q-Chem output
O      -1.624815     -0.662178     -0.075253
C      -1.431542      0.254954      0.743147
N      -0.266420      0.837703      0.932059
C       0.880065      0.491289      0.099816
C       0.772463     -0.954109     -0.298752
C      -0.330388     -1.681785     -0.459481
H      -2.266307      0.604698      1.355018
H      -0.186801      1.539893      1.645800
H       0.896383      1.151200     -0.774569
H       1.785496      0.682190      0.676986
H       1.697267     -1.494662     -0.469527
