11
Extracted from Q-Chem output
O      -2.103651      0.568228     -0.394475
C      -1.641478      0.607484      0.718431
N      -0.313056      0.584791      1.004205
C       0.678006      0.404658     -0.030288
C       1.060750     -1.026934     -0.249487
C       0.988219     -2.062958     -0.995761
H      -2.265738      0.683978      1.625514
H      -0.034261      0.543313      1.968326
H       0.256034      0.788349     -0.957187
H       1.563934      0.991862      0.210550
H       1.690239     -1.598486      0.482658
