15
Extracted from Q-Chem output
O      -1.700632     -0.779681      1.641882
C      -1.166222      0.510773      1.511047
C      -0.157904     -0.082642     -0.838711
C       0.993867      0.308582     -1.701064
C       1.355200     -0.793248     -0.759559
C       0.809371     -0.710912      0.535628
C      -0.020394      0.542018      0.514371
H      -0.931843     -1.372782      1.639290
H      -0.785231      0.885162      2.471495
H      -1.974359      1.175346      1.195350
H      -0.999200     -0.671970     -1.170790
H       0.965440      0.013438     -2.743797
H       1.377270      1.310464     -1.533710
H       1.700268     -1.744778     -1.152145
H       0.469505      1.515150      0.454590
