13
Extracted from Q-Chem output
O       0.560756      1.534362     -0.942014
C       0.104937      0.352438     -0.250332
C       1.362376     -0.488420     -0.049933
O       1.632383     -0.428012     -1.476590
C       0.473945      0.337621     -1.659978
C      -1.379028     -0.304635      1.595589
C      -1.150065      0.395504      0.494449
H       1.166828     -1.519685      0.245961
H       2.156005     -0.039626      0.547177
H      -0.034487      0.323734     -2.614337
H      -0.628390     -0.960214      2.022611
H      -2.330125     -0.248799      2.108563
H      -1.907298      1.057320      0.086815
