21
Extracted from Q-Chem output
C       1.952760     -0.866180     -0.147140
C       0.720772     -1.289075     -0.933701
C      -0.106984      0.913414      1.122216
C       0.314164      2.255038      0.693239
C      -0.312587     -0.180939     -1.110501
C      -1.062191      0.280730      0.177287
C      -1.863582     -0.851595      0.812497
H       2.667493     -1.685870     -0.054210
H       2.462987     -0.031486     -0.635906
H       1.678821     -0.545545      0.864417
H       1.023166     -1.621728     -1.931385
H       0.256941     -2.157590     -0.458443
H       1.331259      2.500870      1.002184
H      -0.327066      2.876327      1.341992
H       0.127937      2.558472     -0.347608
H       0.164857      0.685251     -1.577865
H      -1.084864     -0.517899     -1.806836
H      -1.756953      1.061094     -0.180528
H      -2.460028     -0.474796      1.644339
H      -1.199858     -1.617530      1.215417
H      -2.540301     -1.318116      0.091104
