21
Extracted from Q-Chem output
C       2.341254     -0.545642     -0.000668
C       0.957223     -0.909361     -0.522240
C      -0.042167      0.344497      0.638642
C       0.512626      1.743311      0.521806
C      -0.626997     -0.095863     -1.060911
C      -1.433958      0.292555      0.124454
C      -2.377543     -0.749450      0.684082
H       3.026113     -1.350823     -0.283376
H       2.725585      0.367273     -0.457478
H       2.344309     -0.428373      1.081608
H       1.131038     -1.111742     -1.589609
H       0.617078     -1.836604     -0.070649
H       1.596732      1.801470      0.600374
H       0.107972      2.252757      1.402634
H       0.191585      2.326104     -0.355150
H      -0.392035      0.684063     -1.774419
H      -0.940380     -1.027579     -1.514850
H      -1.897605      1.272087      0.004832
H      -2.705443     -0.471140      1.686954
H      -1.878665     -1.717546      0.760119
H      -3.262773     -0.865602      0.052332
