15
Extracted from Q-Chem output
C      -1.642302     -0.033236      0.862823
C      -1.009723      0.043365     -0.497597
O      -0.240926      1.141375     -0.849110
C       1.188123      1.109868     -0.633613
C       1.773207     -0.217455     -0.426412
O       0.699041     -0.629886      1.122389
C      -0.516086     -0.954342      0.520892
H      -1.401386      0.767618      1.549689
H      -2.637553     -0.447279      0.952333
H      -1.577269     -0.351385     -1.334152
H       1.421279      1.794218      0.184003
H       1.651442      1.503352     -1.548620
H       1.252018     -0.918633     -1.094448
H       1.640372     -0.966034      0.751560
H      -0.695668     -2.014209      0.374297
