15
Extracted from Q-Chem output
C      -0.386480      1.532062     -0.215363
C      -0.086621      0.140463      0.279297
C      -0.758262     -1.033854     -0.384846
C      -1.144096     -0.616963      1.015328
O       1.223124     -0.002466      0.726985
C       2.461840     -0.503836     -0.561042
O       2.568203      0.060128     -1.544673
H       0.237800      1.777507     -1.076564
H      -0.181591      2.258013      0.573580
H      -1.432697      1.627982     -0.510719
H      -1.454209     -0.841384     -1.191520
H      -0.203283     -1.958296     -0.486159
H      -2.107748     -0.146308      1.164566
H      -0.812312     -1.249511      1.827859
H       2.081994     -1.047924      0.391481
