19
smiles: [C:1]([C:2][H:11])([H:8])([H:9])[H:10].[C:3]1([H:12])([H:13])[O:4][C@:5]([C:6]([H:15])([H:16])[H:17])([H:14])[C:7]1([H:18])[H:19]
C       -3.02707900       1.01723300       0.61774900
C       -2.67757600      -0.35261800       0.29591200
C        0.22480700      -1.26111700      -0.95028400
O        1.63517100      -1.33919100      -1.19849300
C        1.92428400      -0.48017200      -0.07750100
C        2.82464200       0.67058300      -0.44602700
C        0.42824400      -0.20188300       0.13680700
H       -4.12060200       0.77770000       0.55119800
H       -2.83989100       1.75431900      -0.16318700
H       -2.86088600       1.41602800       1.62418200
H       -2.69677800      -0.91439800       1.25043900
H       -0.17473700      -2.21462200      -0.59067100
H       -0.32917300      -0.95386600      -1.84057400
H        2.37008100      -1.06461700       0.73676900
H        3.79497200       0.30149900      -0.78300700
H        2.98476200       1.31946800       0.41839500
H        2.38213800       1.25994700      -1.25137800
H        0.12660200       0.80375700      -0.15526800
H        0.02720500      -0.43094300       1.12207100
