19
Extracted from Q-Chem output
C      -2.467538      0.725171      0.300480
C      -1.854653     -0.630904      0.306308
C      -0.332096     -1.116354     -0.868626
O       1.065370     -0.968128     -1.289086
C       1.505025     -0.408440     -0.066484
C       2.630883      0.579833     -0.241960
C       0.149127      0.147047      0.295774
H      -3.510824      0.506365      0.568077
H      -2.490332      1.174129     -0.695459
H      -2.099054      1.467409      1.021655
H      -1.663172     -0.982954      1.326515
H      -0.450192     -2.133845     -0.510593
H      -0.944221     -0.899760     -1.734698
H       1.804856     -1.203182      0.634435
H       3.507211      0.078731     -0.656568
H       2.912458      1.020921      0.716629
H       2.335043      1.376161     -0.927062
H      -0.030806      1.084650     -0.225112
H      -0.064967      0.253492      1.353735
