8
Extracted from Q-Chem output
O      -0.645593     -0.089327      0.989858
C      -0.427691      0.188397     -0.218455
C      -0.618892      1.542478     -0.648608
N      -0.782362      2.607066     -1.043430
C       1.651081     -0.909444      0.040516
N       1.269463     -1.786384      0.708320
H      -0.149023     -0.986870      1.141474
H      -0.283953     -0.568899     -0.977811
