11
Extracted from Q-Chem output
O       1.333346      0.172198     -0.829211
C       1.276043     -0.697220      0.355972
N      -0.003858     -1.320175      0.365441
C      -1.003861     -0.338986     -0.096825
C      -0.250124      0.933768     -0.124292
C       1.035263      0.767967      0.475365
H      -0.020521     -2.186165     -0.151148
H      -1.786842     -0.255766      0.668919
H      -1.496241     -0.546855     -1.052632
H      -0.686045      1.875051     -0.445133
H       1.689026      1.534578      0.863046
