9
Extracted from Q-Chem output
N       2.642937     -0.649800     -0.424625
C       1.606389     -0.144835     -0.489365
C       0.365272      0.540155     -0.605280
C      -0.846626     -0.280878     -0.437182
N      -0.377035      0.498786      0.729657
H      -0.867825      1.339432      0.993560
H      -1.781885      0.069293     -0.860945
H      -0.809554     -1.352938     -0.255447
H      -0.014759     -0.037675      1.507542
