16
smiles: [C:1]([C:2]([C:3]([H:11])([H:12])[H:13])([C:6]#[N:7])[H:14])([H:8])([H:9])[H:10].[C:4]([O:5][H:16])[H:15]
C       -0.99640800      -1.13327100      -0.09685800
C       -0.38018600       0.13288500      -0.69636300
C       -1.23711200       0.72157400      -1.81959600
C        2.32299900      -0.22187600       1.39537200
O        2.54502800      -0.29260500       2.67740100
C       -0.15956200       1.13620300       0.35199800
N       -0.00136800       1.92166400       1.17342500
H       -1.11640000      -1.88798000      -0.87533100
H       -0.36717900      -1.54567600       0.69160700
H       -1.97897300      -0.91957600       0.32682100
H       -2.22429400       0.99785400      -1.44591600
H       -1.36508000      -0.01853200      -2.61073100
H       -0.77452600       1.61041700      -2.24821900
H        0.60810500      -0.11184800      -1.09698300
H        2.86816400       0.70472700       1.10453700
H        2.10445700      -1.07787200       3.02557300
