19
Extracted from Q-Chem output
C       2.807148      0.270857      0.331246
C       1.491205     -0.477999      0.485902
C       0.271513      0.431061      0.438599
C      -1.031779     -0.358523      0.476772
C      -1.269469     -1.187562     -0.795305
O      -2.625235      0.148424     -1.086269
C      -2.280470      0.477287      0.291803
H       2.849254      0.790811     -0.628969
H       2.935137      1.019421      1.117780
H       3.661230     -0.407156      0.377949
H       1.488944     -1.030211      1.432615
H       1.389533     -1.223354     -0.309440
H       0.299278      1.018830     -0.488095
H       0.303864      1.145347      1.270878
H      -1.072673     -0.953373      1.396621
H      -2.025215     -1.952099     -0.555162
H      -2.111505      0.691942     -1.689371
H      -2.162179      1.557290      0.418126
H      -3.125990      0.136358      0.886440
