16
Extracted from Q-Chem output
C      -1.857227      0.657868      0.280977
C      -0.469723      0.150336      0.007262
C      -0.352937     -1.330229     -0.291884
O       0.446940     -2.044389      0.638628
C       0.591138      0.953533      0.033746
C       2.010759      0.574103     -0.246781
H      -1.859897      1.727300      0.492980
H      -2.307048      0.139353      1.133491
H      -2.514473      0.480235     -0.575335
H       0.243488     -1.718618      1.517566
H       0.113058     -1.490171     -1.267263
H      -1.355941     -1.772103     -0.339532
H       0.423841      2.001024      0.276621
H       2.635307      0.737306      0.635773
H       2.420807      1.200821     -1.043165
H       2.115450     -0.471280     -0.531298
