16
Extracted from Q-Chem output
C      -1.724908      0.791464     -0.127191
C      -0.741230     -0.101183      0.570682
C      -0.319579     -1.449983      0.041030
O       0.874394     -1.295159      0.990439
C       0.744178      0.223637      0.657273
C       1.592872      0.578445     -0.543945
H      -1.835458      1.737020      0.409588
H      -2.714176      0.328107     -0.150051
H      -1.460295      1.038192     -1.168551
H       0.109627     -1.062243      1.716376
H       0.141229     -1.549892     -0.950331
H      -0.892982     -2.346667      0.277483
H       1.095153      0.784992      1.526541
H       2.653317      0.398193     -0.359931
H       1.462219      1.651066     -0.707713
H       1.299182      0.069100     -1.459909
