9
Extracted from Q-Chem output
N      -1.455145     -1.102123     -0.625672
C      -0.773000     -0.329618      0.072481
O       0.435975     -0.685229      0.689440
C       1.558299     -0.095959      0.285355
O       1.502664      0.705303     -0.700773
C      -1.242532      0.995088      0.420936
N      -1.603076      2.040128      0.722216
H      -0.988701     -1.997030     -0.763024
H       2.560137      0.504001     -0.126722
