13
Extracted from Q-Chem output
C       1.323175     -0.499255     -0.209920
C       0.601631      0.549382      0.572566
C      -0.584962      1.075402     -0.229925
C      -1.145421     -0.372984     -0.316925
C       0.053485     -0.865912      0.487377
H       1.352119     -0.445019     -1.294714
H       2.230129     -0.878963      0.243774
H       1.063996      1.046398      1.414751
H      -0.338865      1.571020     -1.171960
H      -1.235535      1.729193      0.349782
H      -2.089904     -0.475410      0.216207
H      -1.257232     -0.804554     -1.314381
H       0.027384     -1.629298      1.253368
