12
smiles: [C:1](=[O:2])([H:7])[H:8].[C:3]1([H:9])=[C:6]([H:12])[O:5][C:4]1([H:10])[H:11]
C       -1.80695900       1.13969300      -0.25220900
O       -1.15998800       2.14245900      -0.32878900
C        0.58040900      -1.02112500      -0.56789800
C        1.48749000       0.09297300      -0.12057900
O        1.09652800      -0.21174100       1.25534100
C        0.30376700      -1.20118500       0.72095200
H       -2.10290800       0.56297700      -1.14951500
H       -2.14592500       0.73379900       0.72025400
H        0.29222600      -1.46043200      -1.50583200
H        2.56031100      -0.05323800      -0.24993500
H        1.19618800       1.11132800      -0.37991100
H       -0.29732800      -1.83726300       1.35656800
