16
Extracted from Q-Chem output
C       1.870988     -0.559162     -0.397186
C       1.288841      0.449289      1.056011
C       0.350973     -0.559979      0.692536
C      -0.853316      0.010651      0.129964
C      -2.062453     -0.724569     -0.347764
C      -0.610155      1.344294      0.109119
N       0.642648      1.592049      0.605794
H       2.598101     -1.232158      0.039789
H       1.307148     -1.058565     -1.188539
H       2.358516      0.305868     -0.829471
H       0.437194     -1.585914      1.025030
H      -2.846324     -0.033812     -0.660837
H      -2.477137     -1.364736      0.434482
H      -1.828753     -1.368538     -1.200640
H      -1.256606      2.146597     -0.221161
H       1.023790      2.511240      0.727880
