17
Extracted from Q-Chem output
C       2.291272      0.497312     -0.772578
O       1.474401      0.926931      0.293383
C       0.076483     -0.491081      0.705314
C      -1.010104     -0.564718      1.677416
C      -1.265833     -0.913136      0.211857
C      -1.708235      0.277431     -0.579162
O      -0.846169      1.242028     -0.062090
H       1.696474      0.219403     -1.648679
H       2.871546     -0.370481     -0.448112
H       2.990215      1.289926     -1.049404
H       0.961175     -1.104044      0.763349
H      -0.911182     -1.369821      2.398046
H      -1.462921      0.344333      2.043944
H      -1.453191     -1.941806     -0.079235
H      -1.566846      0.085495     -1.655074
H      -2.761570      0.555089     -0.431048
H       0.607525      1.327597     -0.058222
