17
Extracted from Q-Chem output
C      -2.092834      0.210573      0.043766
C      -1.207425     -0.942085     -0.414202
C       0.271974     -0.734417     -0.086279
C       1.001181      0.394965     -0.841464
C       1.893208      0.937850      0.211478
C       1.675798      0.348894      1.407820
C       0.585153     -0.597094      1.365810
H      -1.823720      1.153235     -0.439688
H      -3.141074      0.015612     -0.188383
H      -2.006199      0.348527      1.123591
H      -1.323940     -1.101320     -1.491292
H       0.795200     -1.682076     -0.306817
H       0.294936      1.162490     -1.174268
H       1.555568      0.084951     -1.732906
H       2.622340      1.720507      0.018762
H       2.213014      0.603476      2.313874
H      -1.532711     -1.859627      0.080316
