13
Extracted from Q-Chem output
C      -0.728451      0.879962      0.773287
C      -0.830374     -0.470288      0.442730
O      -1.778095     -0.817520     -0.488730
C       0.788361     -1.173682     -0.544510
O       0.554025     -2.290483     -0.837444
C       1.721294     -0.159562     -0.680417
C       1.643005      1.073392     -0.373530
H      -1.393740      1.568848      0.264129
H       0.516008      1.260473      0.190054
H      -0.468757      1.132304      1.794015
H      -0.662228     -1.205574      1.228994
H      -1.589092     -1.711678     -0.793906
H       2.282270      1.933799     -0.488217
