11
Extracted from Q-Chem output
C       2.459787      0.480100      0.775202
C       1.485498      0.033695      0.243530
C       0.315382     -0.513476     -0.393022
N      -0.803950     -1.072485      0.443290
C      -0.972521      0.151222     -0.213583
C      -1.603777      1.431443      0.076672
N      -2.228761      0.945887     -0.943272
H       3.324475      0.885083      1.246616
H       0.502594     -1.106003     -1.281170
H      -0.648208     -0.935468      1.438973
H      -1.747738     -0.060549     -1.328949
