16
Extracted from Q-Chem output
C       1.159462      1.618872     -0.021829
C       0.660081      1.358339     -1.426220
N       0.639616      0.310933     -0.354969
C       1.061259     -1.050900     -0.045275
C      -0.317140     -0.574233      0.200832
C      -1.336211     -0.423419      1.246937
C      -1.707761     -0.834791     -0.174594
H       0.538911      2.198531      0.657653
H       2.213187      1.597354      0.255539
H       1.516756      1.105367     -2.062084
H       1.737554     -1.166384      0.793942
H       1.252879     -1.677470     -0.908091
H      -1.593369      0.582717      1.554245
H      -1.389279     -1.171663      2.027364
H      -2.016650     -1.857495     -0.346558
H      -2.174441     -0.086827     -0.804022
