13
smiles: [C:1]([O:2][C:3]#[N+:4][N-:5][H:11])([H:8])([H:9])[H:10].[C:6](#[C:7][H:13])[H:12]
C       -1.64866100       0.43057300       0.51261200
O       -1.75736800       0.34968600      -0.91450100
C       -0.69867100       0.72296400      -1.60201900
N        0.34590900       1.21413500      -1.21874500
N        1.54568900       1.47429300      -1.07201800
C        1.73695600      -1.40710900       0.33682500
C        1.30960900      -2.40082300       0.84383200
H       -2.59152300       0.06800000       0.91361100
H       -0.82520400      -0.19430800       0.86269400
H       -1.48371800       1.46754000       0.81399800
H        1.65263600       2.49278000      -1.06669300
H        2.11889200      -0.52130700      -0.11397500
H        0.92727000      -3.28653700       1.29475700
