13
Extracted from Q-Chem output
C      -2.173490      0.622989      0.218782
O      -1.501887     -0.444023     -0.470809
C      -0.228691     -0.273428     -0.701686
N       0.459852      0.753789     -0.743896
N       1.567982      1.149405     -0.306604
C       2.279493     -1.091278      0.420614
C       1.266746     -1.734943      0.251092
H      -3.201586      0.299528      0.359764
H      -1.694949      0.800291      1.182412
H      -2.137282      1.528503     -0.389339
H       1.989781      1.757459     -1.012875
H       3.215160     -0.635275      0.635346
H       0.558053     -2.530703      0.230496
