12
Extracted from Q-Chem output
O      -2.186619      0.838028     -0.479208
C      -2.043004     -0.408525      0.240347
C      -0.585817     -0.210330      0.028561
N      -0.768492      0.903883     -0.610700
N       1.911885      0.660882     -0.705843
C       1.671792     -0.458030     -0.010665
N       0.525092     -0.916716      0.364009
H       1.144199      1.253241     -0.997883
H      -2.505999     -1.245130     -0.284155
H      -2.405976     -0.336999      1.266167
H       2.852108      0.910425     -0.947567
H       2.554639     -1.032744      0.260225
