12
Extracted from Q-Chem output
O      -1.968939      0.993355     -0.455452
C      -1.845361     -0.243663      0.158738
C      -0.383130     -0.331457      0.032389
N      -0.094921      0.896766     -0.543361
N       1.656799      0.487686     -0.651552
C       1.731896     -0.563303      0.089677
N       0.555539     -1.148344      0.412057
H      -0.227747      1.116613     -1.516762
H      -2.348260     -1.069055     -0.371186
H      -2.165163     -0.294484      1.212071
H       2.449173      1.106090     -0.760373
H       2.657567     -0.954736      0.504307
