18
Extracted from Q-Chem output
C       2.381464     -0.013203      0.286542
C       1.063204      0.643670     -0.053478
O      -0.016191     -0.259444      0.186537
C      -1.392019      0.148035     -0.359031
C      -1.602372     -0.588041     -1.650146
C      -0.951576     -0.183826      1.635507
H       2.521972     -0.916959     -0.306985
H       2.422177     -0.285806      1.342370
H       3.206642      0.671281      0.080908
H       0.906114      1.553050      0.539703
H       1.005043      0.919134     -1.110810
H      -1.316511      1.229615     -0.523454
H      -2.499334     -0.197300     -2.137696
H      -1.755510     -1.658744     -1.491741
H      -0.764940     -0.477378     -2.359543
H      -0.043378     -0.206712      2.256154
H      -1.512394     -1.102847      1.713860
H      -1.557069      0.681501      1.873040
