10
Extracted from Q-Chem output
N      -0.737635      1.449291     -0.688154
C      -0.267544      0.297367     -0.156996
O       0.003333     -0.122239     -1.378577
C       1.694079     -0.721661     -0.119256
O       1.148597      0.167772      0.557503
C      -1.250906     -0.494539      0.706236
O      -0.931517     -1.361151      1.460159
H       0.043469      1.951812     -1.107583
H       2.694743     -0.960384      0.282021
H      -2.299974     -0.186841      0.541654
