10
smiles: [H:7][H:8].[O:1]=[C:2]=[N:3][C:4]([C:5]#[N:6])([H:9])[H:10]
O       -1.62057700       0.89296300      -1.42828900
C       -0.86488600       0.61531100      -0.59373000
N       -0.18053900       0.33396100       0.35501100
C        1.20776600       0.04249200       0.56121400
C        2.05995000       0.38520000      -0.58371100
N        2.71601200       0.65179000      -1.48482900
H       -3.42525400      -1.29501700      -0.06420700
H       -2.81850200      -1.58730600       0.25329200
H        1.56226800       0.59357700       1.43349400
H        1.33287200      -1.02052500       0.77820900
