10
Extracted from Q-Chem output
O      -1.848561      1.383761     -0.381615
C      -1.418153      0.308479     -0.217060
N      -0.437831     -0.472186      0.137033
C       0.850298      0.065265      0.556647
C       1.773794      0.236146     -0.571197
N       2.493711      0.367157     -1.453403
H      -2.335748     -0.757746     -0.524179
H      -1.522300     -1.224082     -0.265380
H       0.740241      1.025613      1.065057
H       1.294443     -0.636714      1.262424
