18
Extracted from Q-Chem output
C      -1.371253     -1.390844     -0.922433
C      -0.983198      0.051107     -0.620103
C      -2.012564      0.727246      0.276864
N       0.309630      0.065712      0.044046
C       2.706792      0.116101      1.226778
C       1.252364      0.675408     -0.516371
O       2.487970      0.767937     -0.017625
H      -1.418107     -1.967828      0.003507
H      -2.347376     -1.434867     -1.410081
H      -0.637137     -1.862312     -1.577829
H      -0.935224      0.604494     -1.571967
H      -1.737331      1.764985      0.472584
H      -2.999694      0.714958     -0.190011
H      -2.073901      0.206839      1.234888
H       2.044612      0.519467      1.994327
H       2.520220     -0.955271      1.136522
H       3.747499      0.303118      1.480821
H       1.187721      1.203100     -1.472518
