14
Extracted from Q-Chem output
C       1.480481     -0.606051     -1.063176
O       0.530006      0.252952     -0.460284
C      -0.725904     -0.291157     -0.325589
C       0.552499     -0.503951      2.071776
C      -1.765317      0.524820     -0.187953
O      -1.679597      1.875899     -0.210794
H       1.197597     -0.833419     -2.095391
H       1.574247     -1.530684     -0.486672
H       2.432624     -0.079663     -1.055616
H      -0.812242     -1.369750     -0.307233
H       1.191200      0.399101      2.031814
H      -0.407062     -0.107916      2.456098
H      -2.766656      0.151655     -0.029901
H      -0.761097      2.111588     -0.381076
