11
Extracted from Q-Chem output
C      -1.688383     -0.584738     -0.049729
C      -0.335192      0.016484      0.001113
C       0.132043      1.247888      0.303603
N       1.577728      1.097146      0.116312
C       1.820182     -0.128862     -0.214667
O       0.715513     -0.819888     -0.367472
H      -1.762760     -1.457638      0.601935
H      -2.409773      0.160375      0.279192
H      -1.950134     -0.895729     -1.063307
H       1.216462      1.940656      0.799020
H       2.768005     -0.602331     -0.415570
