11
Extracted from Q-Chem output
C      -1.354974     -0.046085     -0.109393
C       0.117466     -0.013855      0.105525
C       0.941567     -1.172112      0.135950
O       2.104914     -1.244694     -0.210036
N       1.915434      1.232562     -0.439409
C       0.801641      1.278411      0.085257
H      -1.756700     -1.002403      0.229189
H      -1.855793      0.762095      0.432095
H      -1.618749      0.053277     -1.166938
H       0.447516     -2.037128      0.622120
H       0.240458      2.194396      0.314819
