15
Extracted from Q-Chem output
O       1.907639     -0.874469     -0.517430
C       1.110689     -0.409215      0.401763
C       0.650277      1.196007     -0.000342
C      -0.646963      0.899858     -0.504558
C      -1.362167      0.008380      0.472706
C      -0.299751     -1.047244      0.197420
O      -0.328374     -0.979867     -1.230769
H       0.726259     -1.067689     -1.361518
H       1.480917     -0.402695      1.435747
H       0.607792      1.687824      0.970692
H       1.362817      1.664648     -0.670876
H      -1.088862      1.292590     -1.410616
H      -1.376814      0.401524      1.490438
H      -2.357644     -0.298700      0.160175
H      -0.396920     -2.066582      0.576246
