16
Extracted from Q-Chem output
C      -0.941295     -0.763340      1.476508
C      -0.528420      0.378434      0.570805
C       0.971545      0.772969      0.519357
C       0.959681      0.547295     -0.996560
C       0.971450     -0.856532     -1.417701
C      -0.519557      0.110198     -0.950012
H      -0.778626     -0.503223      2.524631
H      -1.999293     -1.005099      1.349161
H      -0.353640     -1.657533      1.258481
H      -1.146521      1.257503      0.762437
H       1.162591      1.800547      0.827381
H       1.643255      0.098754      1.050786
H       1.237745      1.335859     -1.687748
H      -0.430065     -1.062946     -1.077192
H       0.833010     -0.855042     -2.511586
H      -1.232374      0.507737     -1.662104
