13
Extracted from Q-Chem output
C       0.854661      1.068959     -0.428398
C       0.875241     -0.224229      0.422857
C      -0.456126     -1.040194      0.424938
C      -1.584783     -0.297521     -0.310269
C      -1.278361      0.973126     -0.261335
N      -0.394312      1.787148     -0.016068
H       0.837029      0.842364     -1.496794
H       1.118057      0.064228      1.447016
H       1.718061      1.695749     -0.210517
H       1.692694     -0.857264      0.069970
H      -0.721418     -1.296751      1.452395
H      -0.321452     -1.982797     -0.110541
H      -2.285548     -0.779299     -0.970346
