18
smiles: [C:1](=[C:2]([C@:3]1([H:12])[C:4]([H:13])([H:14])[C@:5]1([C:6]([H:16])([H:17])[H:18])[H:15])[H:10])([H:8])[H:9].[H:7][H:11]
C       -1.87663600       0.70813000       1.68746100
C       -0.67820700       0.22790600       1.38694000
C       -0.14247700       0.07654900       0.02282300
C        0.76210300      -1.08765000      -0.30324700
C        1.32510400       0.29380000      -0.24044900
C        1.76829700       1.00081800      -1.49359500
H       -2.40906400      -1.94131300       0.10853300
H       -2.20806100       0.79704000       2.71431500
H       -2.56929600       1.02753500       0.91604200
H       -0.01530600      -0.08342200       2.19262700
H       -2.61012500      -2.47009700      -0.37553200
H       -0.81446000       0.39170400      -0.76891400
H        0.65172100      -1.54727300      -1.27772500
H        0.99268200      -1.78149500       0.49524600
H        1.91737400       0.51823800       0.64106900
H        1.12913300       0.73320600      -2.33819000
H        1.72353700       2.08531200      -1.37204700
H        2.79432800       0.73260000      -1.75573400
