12
Extracted from Q-Chem output
O       0.562141      0.805840      1.420114
C       1.084888      0.113151      0.293197
C       0.221502     -1.173512      0.114947
C      -1.104575     -0.710133      0.585753
C      -0.688443      0.779896      0.694919
C       0.034989      0.717464     -0.659464
N      -0.298174     -0.634942     -1.182736
H       2.164628      0.113013      0.181474
H       0.557247     -2.201968      0.155595
H      -1.262948     -0.845497     -1.433635
H      -1.410720      1.518401      1.024567
H       0.174614      1.549902     -1.343003
