12
Extracted from Q-Chem output
O       0.354631      0.662827      1.450690
C       1.109411      0.107213      0.363105
C       0.360610     -1.140162     -0.138546
C      -1.023675     -0.632491     -0.032109
C      -0.718203      0.777385      0.503542
C       0.250041      0.827388     -0.693704
N      -0.270022     -0.463157     -1.301587
H       2.187322      0.125080      0.488942
H       0.645943     -2.182086     -0.151957
H      -1.910727     -1.244308      0.043841
H      -1.502047      1.478339      0.771934
H       0.516717      1.683971     -1.304151
