12
Extracted from Q-Chem output
O       0.476807      0.764516      1.423748
C       1.094390      0.112756      0.314752
C       0.292007     -1.179089      0.020580
C      -1.091093     -0.731136      0.373690
C      -0.704835      0.767637      0.605423
C       0.114621      0.739991     -0.687291
N      -0.311355     -0.613366     -1.204377
H       2.178656      0.132919      0.290676
H       0.629364     -2.206384      0.052867
H      -1.481985     -0.795344     -0.876607
H      -1.464439      1.478878      0.911715
H       0.303011      1.560240     -1.373451
