11
Extracted from Q-Chem output
O      -0.920677      2.118686      0.191684
C      -0.473371      0.934677      0.074476
C      -0.995080     -0.434692     -0.226115
C       0.293388     -1.225565     -0.152391
C       1.295391     -0.388257      0.141595
N       0.820096      0.927984      0.279269
H      -1.478529     -0.464044     -1.205413
H      -1.741578     -0.737769      0.512011
H       0.374184     -2.289722     -0.311089
H       2.343090     -0.611507      0.272801
H       0.417240      2.173259      0.413066
