13
Extracted from Q-Chem output
N      -2.247152      0.582987     -0.359469
C      -0.922372      0.177493     -0.134104
C      -0.415273     -1.079558     -0.360374
N       0.919915     -1.085817     -0.100877
C       1.272340      0.227911      0.210352
O       2.485204      0.403331      0.812352
C       0.101339      1.061145      0.343686
H      -2.940422     -0.081307     -0.052385
H      -2.415129      1.485042      0.058869
H      -0.901924     -1.962761     -0.751425
H       1.556181     -1.846446     -0.254445
H       2.405075      1.191512      1.356947
H       1.142005      0.894065     -0.771735
