12
Extracted from Q-Chem output
N       1.781598     -0.045846     -0.195126
C       0.889936      0.824860      0.328291
O       1.143293      1.974503      0.620522
C      -0.497231      0.269050      0.497536
C      -1.280859     -0.164487     -0.682599
N      -0.691031     -1.147670      0.213611
H       2.732936      0.249056     -0.316377
H       1.521252     -1.012726     -0.291066
H      -1.038428      0.729061      1.315710
H      -0.828988     -0.112480     -1.665977
H      -2.352940     -0.007916     -0.656256
H      -1.379539     -1.555407      0.831731
