16
Extracted from Q-Chem output
C      -0.909289     -0.898047     -0.837735
C      -0.064431      0.007780      0.047729
C       0.406728      1.247981     -0.722007
C       1.148777     -0.743703      0.609482
C      -0.869322      0.501038      1.234937
O      -2.015767      0.235958      1.464723
H      -1.785469     -0.371073     -1.217358
H      -0.321549     -1.248242     -1.689191
H      -1.265708     -1.767370     -0.283802
H      -0.438711      1.798082     -1.140196
H       1.058583      0.950584     -1.546022
H       0.973184      1.927123     -0.079714
H       0.841493     -1.635066      1.160358
H       1.803811     -1.057780     -0.205789
H       1.735451     -0.112271      1.281672
H      -0.297780      1.165006      1.922912
