16
Extracted from Q-Chem output
C      -0.842321     -0.693405     -0.912105
C      -0.179655      0.426851     -0.144453
C       0.223472      1.605559     -0.989096
C       0.949318     -1.370261      1.039632
C      -0.514709      0.635733      1.190906
O      -0.408468     -0.244430      2.078680
H      -1.612261     -0.283838     -1.576317
H      -0.134323     -1.232728     -1.554644
H      -1.312389     -1.426632     -0.256071
H      -0.558695      1.893451     -1.702390
H       1.111288      1.363319     -1.582054
H       0.473909      2.477195     -0.381409
H       0.494744     -2.183108      1.587649
H       1.149228     -1.599504      0.000702
H       1.738387     -0.847672      1.559500
H      -0.906466      1.610694      1.516869
