9
Extracted from Q-Chem output
O      -2.200548      1.538205      0.218747
C      -1.523429      0.698228     -0.115344
C      -0.621222     -0.287512     -0.448963
N       0.665017      0.359419     -0.737821
C       1.450131     -0.023253      0.255491
O       1.084428     -0.745760      1.219280
H      -0.276854     -0.801377      0.609840
H      -1.022858     -1.017077     -1.153652
H       2.486838      0.318834      0.196235
