12
Extracted from Q-Chem output
C      -1.894078      0.143829      0.524469
C      -0.826599     -0.420972     -0.293115
C      -0.282473     -0.976260     -1.287796
C       0.951455     -0.164958     -1.907866
C       0.783666      0.149640     -0.623120
C       1.686743      0.232287      0.561277
H      -1.662551      0.107034      1.589384
H      -2.820876     -0.399840      0.339824
H      -2.042790      1.188004      0.236155
H       1.727086     -0.741241      1.056881
H       1.342294      0.971762      1.284800
H       2.688812      0.500266      0.228715
