17
Extracted from Q-Chem output
C       1.741233      0.288793     -0.765566
N       1.173237     -0.323774      0.345650
C       0.624995      0.335583      1.530317
C      -0.104640     -0.512453      0.582899
C      -0.889510      1.046391     -1.014779
C      -1.128365     -1.562082      0.450962
H       1.871979     -0.391581     -1.606011
H       0.474978      0.903278     -1.007186
H       2.637859      0.858946     -0.534828
H       0.445329      1.409560      1.467606
H       1.021314     -0.022129      2.477144
H      -1.388557      0.278812     -1.608383
H      -0.797010      1.937326     -1.644783
H      -1.537963      1.328781     -0.183632
H      -2.120944     -1.112371      0.519634
H      -1.044934     -2.065227     -0.512364
H      -1.040753     -2.304329      1.249677
