13
Extracted from Q-Chem output
O      -2.844543      0.010598      0.409820
C      -1.705651      0.096080      0.217121
C      -0.418463      0.421163      1.255080
N       0.592884     -0.385808      0.857848
C       0.444958     -0.595530     -1.171986
C       1.399564      0.065955     -0.250605
H      -0.920434     -0.336655     -0.721330
H      -0.828009      0.142106      2.225387
H      -0.299314      1.510862      1.149964
H       0.133126     -0.073628     -2.074041
H       0.587898     -1.659591     -1.299339
H       2.408638     -0.345315     -0.221033
H       1.450041      1.155297     -0.371759
