13
Extracted from Q-Chem output
O      -1.633404     -0.792797      0.760329
C      -1.054417     -0.713719     -0.526572
C      -0.736889      0.700310     -0.929726
C       0.438920      1.298817     -0.881876
O       1.632347      0.730924     -0.433193
C       1.624491      0.022120      0.653067
C       1.685364     -0.620522      1.660371
H      -0.950837     -0.552405      1.393848
H      -0.163303     -1.344278     -0.598598
H      -1.796270     -1.117796     -1.216395
H      -1.557138      1.315014     -1.282666
H       0.619832      2.309427     -1.221187
H       1.752455     -1.197964      2.550356
