13
Extracted from Q-Chem output
O      -2.322447     -0.424938     -0.193952
C      -0.971287     -0.589730      0.161238
C      -0.048970      0.285260     -0.708223
C       0.368943      1.533482     -0.239223
O       1.318629      1.280992      0.620961
C       1.452642     -0.097146      0.268227
C       2.223911     -1.025010      0.613052
H      -2.633867      0.421193      0.131967
H      -0.800564     -0.397387      1.223666
H      -0.724672     -1.632832     -0.036090
H      -0.324528      0.189862     -1.757352
H       0.169545      2.567456     -0.497193
H       2.240072     -2.079221      0.401118
