13
Extracted from Q-Chem output
O       0.251103      0.655523      1.569900
C       0.571811      0.936240      0.399233
C       1.584618      0.019354     -0.290472
O       0.609615     -1.014082     -0.629635
C      -0.712539     -0.392459     -0.494094
C      -1.271771     -0.485494      0.870494
C      -0.473732      1.074421     -0.559472
H       2.320836     -0.412958      0.384180
H       2.049467      0.434692     -1.183594
H      -1.394049     -0.796560     -1.244973
H      -0.844927     -1.131537      1.624784
H      -2.308395     -0.194907      0.995419
H      -0.295375      1.476508     -1.550825
