11
Extracted from Q-Chem output
C      -0.171982      1.257429     -0.061515
C      -1.154845      0.257197      0.023545
C      -0.732503     -1.033124      0.078789
N       0.597543     -1.300519      0.051391
C       1.631602     -0.424885     -0.028057
C       1.156468      0.915078     -0.084802
H      -0.476575      2.298151     -0.108101
H      -2.210358      0.490082      0.043921
H      -1.402395     -1.881132      0.144835
H       0.854316     -2.275542      0.095214
H       1.899223      1.702147     -0.152876
