11
Extracted from Q-Chem output
C      -0.161373      1.216553     -0.073180
C      -1.195421      0.279292      0.022752
C      -0.878101     -1.054095      0.098122
N       0.412723     -1.408976      0.075731
C       1.471610     -0.542724     -0.016239
C       1.160762      0.820996     -0.092088
H      -0.412711      2.270390     -0.133026
H      -2.230548      0.594681      0.037282
H      -1.618800     -1.840280      0.176979
H       1.488648     -1.885694      0.073296
H       1.953701      1.554736     -0.167285
