12
smiles: [C:1](=[O:2])([H:7])[H:8].[C:3]1([H:9])=[C:4]([H:10])[C:5]([H:11])([H:12])[O:6]1
C        2.79161800       0.56649900      -0.23238000
O        2.78492300      -0.09129900       0.76615300
C       -0.50614000      -0.49599000       0.67636100
C       -1.76719600      -0.90308400       0.55756400
C       -1.90858400       0.15114600      -0.50692000
O       -0.50684800       0.49847500      -0.27462300
H        3.72739800       0.98009900      -0.65517200
H        1.86230700       0.79735400      -0.78775900
H        0.38445500      -0.72072100       1.24757500
H       -2.40456300      -1.64168400       1.00918700
H       -2.55186500       1.00327100      -0.28523500
H       -2.04880900      -0.18911500      -1.53346200
