12
Extracted from Q-Chem output
N      -1.101747     -0.315255     -0.825740
C      -0.669834      0.712456      0.132893
C       0.851878      0.560896      0.191352
O       1.363225      0.923277      1.447231
C       1.098353     -0.893708     -0.172263
N       0.005045     -1.242266     -0.758824
H      -1.092812      0.075280     -1.764144
H      -0.194810     -2.166491     -1.108355
H      -1.013273      1.694116     -0.188405
H      -1.088744      0.490452      1.116881
H       1.332838      1.154050     -0.606197
H       2.101999      0.336141      1.627919
