11
smiles: [C:1]([C:2]#[C:3][H:10])([H:7])([H:8])[H:9].[N:4](=[N+:5]=[N-:6])[H:11]
C       -2.13615000       0.06012800      -0.04790500
C       -0.93105900       0.87883900      -0.03446500
C        0.06005800       1.54988700      -0.02294000
N        2.80734300      -0.36211900       0.12177800
N        1.91784800      -1.21260000       0.08127200
N        1.01728600      -1.87540400       0.05926500
H       -1.88958300      -0.98432000      -0.24363000
H       -2.82436300       0.39869100      -0.82350700
H       -2.65032600       0.11502200       0.91248900
H        0.94233300       2.14472300      -0.01302800
H        3.71543300      -0.80958400       0.03607200
