14
Extracted from Q-Chem output
C      -1.721227     -0.134422      0.329155
C      -0.307628      0.346969      0.207363
C       0.141581      1.424059     -0.664525
C       0.779039     -0.295043     -0.662718
C       1.516492     -0.459657      0.660323
O       0.473684      0.174702      1.403729
H      -1.754380     -1.126138      0.780654
H      -2.279943      0.546795      0.973015
H      -2.210859     -0.162892     -0.644444
H       1.247128      0.680008     -1.172776
H      -0.497123      1.370011     -1.559916
H       0.544123     -1.070783     -1.378815
H       2.468578      0.068487      0.745947
H       1.638487     -1.506972      0.947382
