17
smiles: [C:1]([O:2][C:3]([C:4]1=[C:6]([O:7][H:17])[C:5]1([H:14])[H:15])([H:11])[H:12])([H:8])([H:9])[H:10].[H:13][H:16]
C        2.58141500       0.18406800      -0.22903000
O        1.20349800       0.29361400       0.01427300
C        0.51196800      -0.89734600      -0.27521000
C       -0.92015600      -0.69455200      -0.00969200
C       -2.29401200      -1.35732600       0.00031900
C       -1.92211800       0.02291200       0.35247800
O       -2.45319600       1.16684500       0.77617000
H        3.03819300      -0.59971700       0.38942300
H        3.03482600       1.14165400       0.02262700
H        2.78637700      -0.04141200      -1.28385900
H        0.66601300      -1.18428800      -1.32745600
H        0.89641700      -1.72608100       0.33997200
H        0.16730100       2.49051500       0.17968200
H       -2.80086500      -1.56064500      -0.94587100
H       -2.54107700      -2.07340200       0.78766300
H       -0.17173000       3.15260600       0.21290300
H       -1.74560200       1.81302200       0.86490700
