17
Extracted from Q-Chem output
C       2.434374     -0.341038      0.798319
O       1.059026     -0.145662      0.600716
C       0.651493     -0.376884     -0.773310
C      -0.792468     -0.181196     -0.975471
C      -1.952612     -0.721315     -0.223862
C      -1.519915      0.704956     -0.115290
O      -1.173649      1.388486      1.014076
H       2.722053     -1.375892      0.573903
H       2.657397     -0.132840      1.844478
H       3.032981      0.328193      0.166044
H       1.237288      0.307973     -1.401402
H       0.934095     -1.399565     -1.050752
H      -1.799506      1.486516     -1.069055
H      -2.853013     -1.023900     -0.759136
H      -1.854320     -1.190943      0.757404
H      -2.525260      1.483613     -0.548135
H      -0.223108      1.215957      1.122562
