12
Extracted from Q-Chem output
N       1.677507      0.267775     -0.416096
C       1.026661     -0.246692      0.624269
O       1.435488     -0.886039      1.558672
C      -0.912746      1.045333     -0.520493
C      -1.222167     -0.395021     -0.619064
N      -0.401115      0.052902      0.538194
H       2.674877      0.181352     -0.463970
H       1.124007      0.929723     -0.970613
H      -1.731909      1.592001     -0.049580
H      -0.666630     -1.014056     -1.318862
H      -2.164417     -0.839553     -0.300901
H      -0.838148     -0.078297      1.442187
