12
Extracted from Q-Chem output
N       1.697555     -0.155468     -0.514136
C       0.863807      0.134602      0.577035
O       1.281559      0.429791      1.676131
C      -0.736740      0.954107     -0.083280
C      -1.231569     -0.283579     -0.706400
N      -0.464693     -0.495849      0.513294
H       2.621592      0.187586     -0.297882
H       1.373610      0.240167     -1.382688
H      -1.446352      1.462969      0.565998
H      -0.776396     -0.690014     -1.604538
H      -2.269278     -0.576904     -0.573127
H      -0.909372     -0.715852      1.392871
