15
Extracted from Q-Chem output
O      -2.337462     -0.002447     -0.722749
C      -1.632550     -0.378734      0.448741
C      -0.303099      0.267045      0.681675
C       1.555861     -0.603657      0.365491
O       2.563934     -0.699952     -0.540780
C      -0.018413      1.483141     -0.057979
O       0.456136      0.344945     -0.778421
H      -1.738333     -0.133724     -1.463241
H      -2.264557     -0.103400      1.298108
H      -1.515620     -1.471024      0.483851
H       1.914077     -0.045307      1.216384
H       1.067847     -1.546977      0.581756
H       2.292873     -1.243900     -1.285290
H       0.762537      2.167418      0.269874
H      -0.830668      1.957798     -0.603182
