15
Extracted from Q-Chem output
C      -1.763850     -0.361223      0.623112
C      -0.835192      0.768168      0.328085
O      -1.525930      1.940671      0.291958
C       0.482238      0.708293      0.127727
C       1.337028     -0.525238      0.123922
C       1.686491     -0.918970     -1.292801
O       2.801414     -0.996964     -1.727314
H      -2.283351     -0.172285      1.564253
H      -2.520757     -0.429093     -0.160490
H      -1.247847     -1.315235      0.689787
H      -0.922520      2.663174      0.099792
H       1.005191      1.638525     -0.084027
H       0.808121     -1.119370     -1.943954
H       2.265690     -0.370667      0.675653
H       0.812713     -1.369523      0.579373
