16
Extracted from Q-Chem output
C       2.159261     -0.375745     -0.372964
C       0.731014     -0.506666      0.152086
C      -0.293420      0.106623     -0.781274
C      -1.909639     -0.280728      0.955354
C      -0.814665      1.377735     -0.553223
O      -1.464587      1.663966      0.476715
H       2.448142      0.673307     -0.462746
H       2.870330     -0.868649      0.294300
H       2.255362     -0.832392     -1.360829
H       0.511958     -1.573141      0.302016
H       0.657724     -0.046169      1.140961
H      -0.114963     -0.144550     -1.828115
H      -1.943445      0.138302      1.950607
H      -2.828458     -0.210468      0.392415
H      -1.401266     -1.233744      0.896195
H      -0.666878      2.188740     -1.280286
