16
Extracted from Q-Chem output
C       2.842327      0.256188      0.569988
C       1.853328     -0.874210      0.524624
C       0.659805     -0.792424      0.010459
C      -0.536166     -0.702014     -0.496368
C      -1.764673     -0.283753      0.267646
C      -2.412829      0.966553     -0.321460
H       2.428218      1.157190      0.118722
H       3.122419      0.484214      1.601300
H       3.757828     -0.008682      0.035466
H      -0.668136     -0.931928     -1.552289
H       2.164717     -1.825694      0.949485
H      -1.498545     -0.114940      1.312915
H      -2.486533     -1.106885      0.253790
H      -2.685452      0.811442     -1.368067
H      -3.319949      1.233565      0.223910
H      -1.728730      1.816301     -0.279358
