12
Extracted from Q-Chem output
O      -0.925544      0.800174      0.872219
C      -0.467722     -0.092995     -0.129084
C       0.113662      0.651688     -1.321426
C       0.554201     -0.983285      0.527457
C       0.793684     -0.927920      1.814557
O       1.025283     -0.896454      2.946482
H      -1.644860      1.323875      0.516517
H      -1.307377     -0.714348     -0.472635
H       0.490876     -0.048997     -2.069074
H      -0.652001      1.268629     -1.799408
H       1.123837     -1.698524     -0.048744
H       0.933078      1.294104     -0.996518
