12
Extracted from Q-Chem output
O      -1.783819      0.526210      0.484009
C      -0.780128     -0.181234     -0.199397
C       0.180089      0.601513     -0.971810
C       0.182536     -0.930310      0.639110
C       1.353304     -0.207973      0.905551
O       2.432060     -0.476336      1.370794
H      -2.412837      0.868541     -0.156541
H      -1.203063     -0.947955     -0.871763
H       0.674169      0.125279     -1.808780
H       0.209940      1.684999     -0.935774
H       0.035131     -1.963833      0.930806
H       1.130451      0.886347      0.563265
