11
Extracted from Q-Chem output
C       0.360662      1.312806      0.081129
C       0.240082     -0.114003      0.481899
O       0.879304     -0.366378      1.636745
C      -0.416835     -1.067467     -0.198515
C      -1.089027     -0.796255     -1.419618
N      -1.636754     -0.589924     -2.410249
H      -0.029664      1.947894      0.877972
H      -0.178924      1.514140     -0.840803
H       1.414546      1.562425     -0.054152
H       0.790442     -1.293785      1.875093
H      -0.456085     -2.088299      0.163751
