10
Extracted from Q-Chem output
O       2.059183     -0.003977     -1.514256
C       1.073535     -0.040080     -0.820561
C       0.660546      1.125726     -0.005143
N      -0.371331      1.147457      0.754524
N      -1.092663      0.013330      0.775898
C      -0.767125     -1.075994      0.051958
N       0.249183     -1.164775     -0.726852
H      -1.902380      0.031895      1.370464
H       1.261735      2.026309     -0.044905
H      -1.443664     -1.920769      0.166103
