16
Extracted from Q-Chem output
C       2.010611      1.108363      0.138111
O       0.605623      0.178442     -0.956290
C      -0.271803     -0.536201     -0.485458
C      -1.529494     -0.722009     -1.262019
C      -0.192178     -1.161324      0.865177
C      -0.109446      1.967611      0.774369
N      -1.242850      1.962097      1.027016
H       2.075742      2.044141     -0.390098
H       2.027840      1.181907      1.211248
H       2.560686      0.280289     -0.285451
H      -1.966252     -1.710023     -1.123374
H      -1.375411     -0.499028     -2.314905
H      -2.216301      0.025208     -0.843126
H      -0.956547     -0.691843      1.489015
H       0.779238     -1.015498      1.329419
H      -0.416822     -2.226624      0.786982
