19
smiles: [C:1]([O+:2]=[C-:3][H:12])([H:8])([H:9])[H:10].[C:4]1([C:5]([H:13])([H:14])[H:15])([H:11])[C:6]([H:16])([H:17])[C:7]1([H:18])[H:19]
C        2.48710800       0.18056800      -0.32158600
O        2.21210900       0.94883200       0.86039300
C        2.04649700       0.28998300       1.95747800
C       -1.02351600      -0.31954500       0.09871400
C       -1.30115200       1.15753200       0.19643900
C       -0.96444000      -0.98667300      -1.24172800
C       -2.11044500      -1.26603400      -0.31121600
H        1.71142700       0.40934300      -1.05074900
H        2.48908100      -0.87718200      -0.06206600
H        3.45675500       0.49808800      -0.70216700
H       -0.32879700      -0.69893700       0.84059400
H        1.85422600       1.09894100       2.69904900
H       -0.38573800       1.74140700       0.07578400
H       -1.74026800       1.41663700       1.16263900
H       -2.00135300       1.47221300      -0.58128400
H       -0.23268000      -1.76753700      -1.40225400
H       -1.16132300      -0.37444500      -2.11344600
H       -2.15832900      -2.23706200       0.16390100
H       -3.07614700      -0.84311000      -0.56034400
