14
Extracted from Q-Chem output
C      -0.636061     -1.398927     -0.561157
C      -0.072603     -0.088203     -0.138306
C      -0.989461      0.747478      0.705429
O      -0.492281      1.977280      1.152886
C       1.167152      0.349928     -0.510003
C       1.983407     -0.472458     -1.325972
H      -1.124877     -1.898286      0.278643
H       0.148400     -2.019188     -0.989500
H      -1.401377     -1.235156     -1.325777
H       1.444273      1.355192     -0.190608
H      -1.885774      0.967571      0.116238
H      -1.327003      0.118570      1.542599
H       0.243555      1.822314      1.748523
H       2.840851      0.134190     -1.667741
