10
smiles: [N:1]([C:2]#[C:3][H:9])([H:7])[H:8].[O-:4][N+:5]#[C:6][H:10]
N        1.52976200      -0.05909700      -0.30922300
C        1.10107000      -1.33814000      -0.28144300
C        0.67187100      -2.45697800      -0.24991500
O       -3.42637000       2.52688000       0.31232400
N       -2.38154200       1.96760200       0.18181300
C       -1.37397500       1.42600300       0.05536100
H        1.91065500       0.24164000      -1.19178300
H        2.10492000       0.21198000       0.47182500
H        0.28763800      -3.44750200      -0.22199800
H       -0.43854800       0.93708400      -0.06072100
