10
Extracted from Q-Chem output
N       1.682888     -0.025547     -0.517630
C       0.427738     -0.525439     -0.308624
C      -0.431764     -1.399390     -0.296540
O      -2.337172     -0.222093      0.245425
N      -1.754680      0.831357      0.247214
C      -0.671710      1.305144      0.086452
H       1.942578      0.756332      0.059011
H       2.401351     -0.731544     -0.538589
H      -1.067038     -2.250785     -0.316221
H      -0.197008      2.266136      0.041251
