11
Extracted from Q-Chem output
C       0.928757     -0.489682     -0.152538
N       0.556541      0.687251      0.588908
C      -0.834363      0.969726      0.174006
C      -1.425071     -0.287856     -0.421151
N      -0.384515     -1.060095     -0.552949
H      -0.444241     -1.967424     -0.988181
H       1.511102     -1.193128      0.444478
H       1.493511     -0.241614     -1.057512
H       0.565664      0.474402      1.576395
H      -1.426764      1.350115      1.005935
H      -0.865200      1.735144     -0.611998
