11
Extracted from Q-Chem output
C       1.259746     -0.538188     -0.204967
N       0.509349      0.339950      0.676838
C      -0.713495      0.849823      0.105994
C      -1.693961     -0.190100     -0.282592
N      -2.427281     -1.027690     -0.560803
H       0.695790     -1.418756     -0.541711
H       2.157937     -0.877996      0.309736
H       1.575371      0.021403     -1.088398
H       0.318386     -0.118200      1.556881
H      -1.200497      1.521788      0.814422
H      -0.481345      1.437968     -0.785400
