10
Extracted from Q-Chem output
O       2.229005     -0.840103      0.734257
C       1.465347     -0.352976      0.030048
C       0.014430      1.166233      0.296802
N      -0.817314      0.092332      0.226550
C      -0.514801     -0.872462     -0.678333
H      -0.081056      1.787974      1.179594
H       0.216507      1.682509     -0.631132
H      -1.177784     -0.237743      1.108291
H      -1.014186     -1.826408     -0.553022
H      -0.340015     -0.551426     -1.695138
