15
Extracted from Q-Chem output
C      -1.823175      0.555736      0.194356
C      -1.186308     -0.556917     -0.628943
N       0.210920     -0.326798     -0.969156
C       1.171275     -0.287295      0.017597
O       0.919850     -1.218430      0.972835
C       2.243963      0.514146      0.031241
H      -2.869320      0.326945      0.408323
H      -1.787787      1.509696     -0.336919
H      -1.301733      0.677908      1.145473
H      -1.252108     -1.505043     -0.096314
H      -1.722802     -0.687770     -1.570839
H       0.353883      0.387145     -1.663915
H       2.378570      1.273521     -0.724600
H       3.024851      0.384164      0.767690
H       1.572496     -1.118881      1.668288
