17
Extracted from Q-Chem output
O       1.937890      0.095274      1.380271
C       2.014704     -0.464955      0.079460
C       0.597317     -0.803624     -0.369314
C      -0.160154      0.484523     -0.449915
C      -2.300596      0.171110     -0.672938
O      -2.222431      1.132754      0.321478
C      -0.920876      0.853469      0.822384
H       2.798216      0.436716      1.625992
H       2.617198     -1.381018      0.085595
H       2.458528      0.245304     -0.626167
H       0.184463     -1.543233      0.334652
H       0.675988     -1.263490     -1.357764
H      -1.255185      0.327376     -1.282998
H      -2.408529     -0.854896     -0.300325
H      -3.046942      0.414425     -1.430525
H      -0.494928      1.728045      1.315602
H      -0.989108      0.031269      1.558138
