13
Extracted from Q-Chem output
C      -2.556105      0.268387      0.132606
O      -1.393640     -0.465853      0.511061
C      -0.246635     -0.029595     -0.041438
N      -0.076840      0.934331     -0.822197
N       2.357302      0.738015     -0.845293
C       2.186460     -0.262824     -0.055017
C       0.922423     -0.847815      0.128094
H      -3.377262     -0.156662      0.704052
H      -2.438053      1.327491      0.374185
H      -2.746990      0.165111     -0.936435
H       3.244949      1.211824     -0.668749
H       3.008436     -0.689319      0.529109
H       0.792793     -1.922586      0.205610
