15
Extracted from Q-Chem output
N      -2.183916     -0.872374     -0.048011
C      -0.953058     -0.218198      0.359948
C       0.264244     -0.679728     -0.481256
C       1.402325      0.239368     -0.330029
O       2.040066      0.131545      0.884856
C      -1.015459      1.284286      0.219953
N       0.003008      1.874558     -0.113603
H      -2.341525     -1.722982      0.473028
H      -2.963445     -0.252974      0.125427
H      -0.722013     -0.371239      1.425056
H      -0.048499     -0.733131     -1.524398
H       0.541323     -1.684453     -0.149119
H       0.875187      2.068463     -0.581041
H       2.073331      0.348868     -1.184957
H       2.860582      0.625628      0.874561
