11
Extracted from Q-Chem output
C      -1.708569      0.007978      0.158569
C      -0.287052     -0.444507      0.357697
C       0.758719      0.289524     -0.422852
C       2.149489      0.163413     -0.025875
N       1.894372     -0.560238     -0.996631
O       0.015759     -1.345069      1.100924
H      -2.375277     -0.566963      0.796556
H      -1.801528      1.072934      0.385707
H      -1.992209     -0.123263     -0.888751
H       0.435260      1.121113     -1.041674
H       2.960124      0.420947      0.638840
