11
Extracted from Q-Chem output
C      -1.727033      0.061629      0.172693
C      -0.340106     -0.517366     -0.057407
C       0.705198      0.441415     -0.234438
C       2.082832      0.082370      0.059373
N       2.268318     -1.122535     -0.125756
O      -0.157627     -1.721156      0.006649
H      -1.986778     -0.085271      1.222030
H      -1.795270      1.123395     -0.059519
H      -2.442877     -0.494289     -0.431315
H       0.539633      1.383505     -0.743616
H       2.866750      0.834468      0.193191
