13
Extracted from Q-Chem output
N      -2.059692      0.777858     -0.636412
C      -1.003780      0.185997     -0.300494
O      -0.962780     -1.153546     -0.194972
C       0.372158     -1.622251      0.042687
C       1.162616     -0.424882      0.562510
C       0.357086      0.737259      0.061340
N       0.763203      1.923366     -0.036845
H      -1.924631      1.784815     -0.635834
H       0.034417      2.535239     -0.406276
H       0.776057     -1.999490     -0.899825
H       0.303950     -2.446121      0.750289
H       1.170967     -0.402241      1.654785
H       2.192075     -0.389254      0.212757
