13
Extracted from Q-Chem output
N      -2.256175      0.791318     -0.490491
C      -1.117989      0.293576     -0.304313
O      -0.982369     -1.030016     -0.100461
C       0.375052     -1.445167     -0.035444
C       1.191519     -0.387445      0.696757
C       0.831147      0.917852      0.095732
N       1.083152      2.027760     -0.306406
H      -2.213922      1.803678     -0.578025
H      -0.079857      1.441546     -0.592604
H       0.762697     -1.596744     -1.047714
H       0.391096     -2.396347      0.492182
H       0.932279     -0.368065      1.757192
H       2.265018     -0.545197      0.587306
