15
Extracted from Q-Chem output
C      -0.361005      1.825803      1.170335
C      -0.712263      0.409664      1.096962
C      -0.961868     -1.929979     -0.697661
O       0.010068     -1.780025      0.313652
C       0.361193     -0.443658      0.553855
C       1.164291      0.124574     -0.545263
C       1.784120      0.602555     -1.451235
H      -0.834718      2.165966      0.229221
H      -0.887694      2.356495      1.962935
H       0.696180      2.112302      1.108257
H      -1.867753     -1.366074     -0.449483
H      -0.579018     -1.598161     -1.670133
H      -1.200107     -2.990469     -0.751025
H       0.998240     -0.471992      1.463354
H       2.343908      1.015750     -2.257084
