15
Extracted from Q-Chem output
C      -0.788551      1.428233      0.616222
C      -0.646709      0.016994      1.049198
C      -1.003873     -1.398683     -0.538558
O       0.157623     -1.884487      0.051653
C       0.664132     -0.697083      0.650309
C       1.558038      0.014019     -0.286793
C       2.280672      0.623291     -1.023108
H      -1.807099      1.796752      0.736129
H      -0.168761      1.976984      1.339788
H      -0.395346      1.686432     -0.374903
H      -1.524183     -0.782752      0.387307
H      -0.837779     -0.787396     -1.430602
H      -1.737312     -2.187759     -0.705523
H       1.243522     -0.954486      1.541223
H       2.930387      1.154947     -1.677807
