12
Extracted from Q-Chem output
N       2.129138      0.050353     -0.757882
C       0.913734      0.112054     -0.151703
O       0.838132      0.283698      1.083923
N      -0.147697     -0.007899     -0.969273
C      -1.304185     -0.653297     -0.339213
C      -1.347921      0.369763      0.667766
H       2.167086      0.009132     -1.757894
H       2.922976      0.394616     -0.252871
H      -2.126674     -0.640139     -1.052201
H      -1.130310     -1.663594      0.036296
H      -1.622622      1.365675      0.347409
H      -1.238873      0.196766      1.725984
