16
Extracted from Q-Chem output
C       2.126454     -0.052633     -0.257463
C       1.370009      0.826425      0.664540
O       0.075468      0.684447      0.792987
C      -0.447899     -0.626600      1.105305
C      -1.870232     -0.434755      0.599544
C      -1.605791      0.400233     -0.601809
H       3.126343      0.346529     -0.423240
H       1.590615     -0.072537     -1.227353
H       2.231052     -1.089689      0.069238
H      -0.272873     -0.821995      2.169569
H       1.683048      1.855989      0.796809
H       0.066722     -1.379448      0.507441
H      -2.348656     -1.401093      0.413242
H      -2.465971      0.102655      1.338519
H      -1.299460     -0.094536     -1.517287
H      -2.095064      1.357242     -0.718578
