14
Extracted from Q-Chem output
C      -1.114358     -1.155424     -0.041235
C      -0.202253      0.064248      0.081365
C       1.250332     -0.257480     -0.130858
O       2.000338      0.942945     -0.041253
C      -0.692207      1.294926     -0.416089
O      -1.634371      1.742156      0.319544
H      -2.169389     -0.887479      0.014947
H      -0.912085     -1.866283      0.762322
H      -0.952910     -1.680183     -0.991450
H      -1.137361      0.817663      1.007156
H       1.568993     -0.983800      0.628657
H       1.406247     -0.730945     -1.114869
H       2.913299      0.756699     -0.262955
H      -0.340485      1.900844     -1.253337
