17
Extracted from Q-Chem output
C       1.851468      0.574352      0.023326
C       0.807998     -0.430443     -0.452273
C       0.006176     -1.001573      0.735467
C      -1.253539     -0.193446      0.709492
O      -2.070654     -0.285546      1.784488
C      -1.406534      0.498286     -0.415786
C      -0.254235      0.253442     -1.350899
H       2.575319      0.107349      0.694826
H       1.372721      1.397045      0.562077
H       2.399467      1.000337     -0.819873
H       1.313587     -1.231659     -0.995072
H       0.532008     -0.903316      1.688811
H      -0.231911     -2.062681      0.609894
H      -2.855162      0.247081      1.633814
H       0.137293      1.173989     -1.794173
H      -2.258853      1.122263     -0.657345
H      -0.550366     -0.393077     -2.184516
