17
Extracted from Q-Chem output
C       1.941047      0.561336     -0.249132
C       0.820303     -0.458123     -0.267935
C       0.037045     -0.727517      1.047237
C      -1.256663     -0.265895      0.370237
O      -2.367983     -1.078422      0.501278
C      -1.396791      1.119344     -0.011022
C      -0.494015     -0.074563     -0.963369
H       2.752623      0.226858      0.399881
H       1.597028      1.527531      0.126588
H       2.350131      0.714784     -1.249986
H       1.186622     -1.395285     -0.691480
H       0.327412     -0.151715      1.927253
H       0.011961     -1.785851      1.302527
H      -3.130116     -0.527556      0.300827
H      -0.798753      1.051175     -1.276554
H      -0.595370      1.741529      0.395194
H      -0.903098     -0.578985     -1.832213
