13
Extracted from Q-Chem output
O      -2.200714      1.007614      0.453470
C       1.217896     -1.582937     -0.353752
C      -0.182275     -1.146298     -0.023931
C      -0.000258      0.347380     -0.027003
C      -0.918308      1.299431      0.183395
C       2.161547     -0.584574     -0.350340
C       1.415277      0.573932     -0.116126
H      -2.705420      1.809330      0.600517
H       1.396373     -2.597185     -0.704303
H      -0.574031     -1.501791      0.935091
H      -0.871024     -1.508967     -0.793527
H      -0.653055      2.352480      0.138828
H       1.843050      1.553123      0.089731
