19
Extracted from Q-Chem output
C      -2.544715     -0.303895     -0.017124
C      -1.246061      0.485883      0.002881
C      -0.124650     -0.141804      0.855847
C       1.173787      0.389448      0.241428
C       2.379643     -0.531313      0.351122
C       0.718251      0.685874     -1.175769
C      -0.660311      0.804215     -1.363070
H      -2.383734     -1.297613     -0.443935
H      -2.948103     -0.434211      0.990129
H      -3.293092      0.201466     -0.627926
H      -1.460492      1.493362      0.390783
H      -0.217125      0.074880      1.921508
H      -0.154784     -1.232898      0.743448
H       1.425292      1.360005      0.689364
H       2.175231     -1.495074     -0.122875
H       2.633174     -0.722289      1.395533
H       3.259323     -0.099049     -0.130509
H       1.433878      0.930701     -1.960220
H       0.063089     -0.229365     -1.773817
