14
Extracted from Q-Chem output
C       1.903309     -0.211414     -0.189116
N       2.357707      1.024015      0.323875
C      -0.203429     -0.769335      0.626583
O       0.465069     -0.211223     -0.362354
N      -1.526002     -0.652401      0.398664
C      -2.191055     -0.029305     -0.657046
N      -3.452531     -0.037985     -0.686090
H       2.300197     -0.388951     -1.188098
H       2.122282     -1.056623      0.464652
H       3.016330      1.524658     -0.243253
H       2.597538      1.027341      1.299299
H      -2.132510     -1.063477      1.090799
H      -1.529865      0.430868     -1.387977
H      -3.796679      0.453624     -1.503907
