15
Extracted from Q-Chem output
C      -0.243595      1.494887     -0.195456
C      -0.157609      0.081018      0.302216
C      -0.774857     -1.061084     -0.427401
C      -1.344450     -0.598800      0.890082
O       1.051630     -0.197997      1.032346
C       2.212982     -0.395255      0.468896
O       2.098864     -0.302303     -0.854878
H       0.503650      1.690699     -0.963726
H      -0.094493      2.195028      0.628294
H      -1.231226      1.675062     -0.622036
H      -1.313214     -0.840343     -1.340121
H      -0.236534     -1.998537     -0.434122
H      -2.283246     -0.060517      0.894537
H      -1.170219     -1.227418      1.752843
H       2.978360     -0.456912     -1.208024
