15
Extracted from Q-Chem output
C      -0.275901      1.503712     -0.207605
C      -0.160183      0.084578      0.267859
C      -0.820341     -1.051193     -0.433908
C      -1.302833     -0.608407      0.923863
O       1.098246     -0.202388      0.912115
C       2.164144     -0.376621      0.179529
O       2.095715     -0.293584     -1.103212
H       0.421550      1.705787     -1.019816
H      -0.075459      2.195295      0.612602
H      -1.288479      1.688463     -0.568450
H      -1.416468     -0.818363     -1.306526
H      -0.281614     -1.986605     -0.490130
H      -2.239242     -0.070980      0.996340
H      -1.072185     -1.247243      1.765563
H       3.150821     -0.523701     -0.552889
