15
Extracted from Q-Chem output
C      -2.390032     -0.493880      0.278591
C      -1.107147     -0.162524      0.128564
C      -0.611387      1.094597     -0.568396
N       0.842301      0.912223     -0.670493
C       1.166527     -0.210157      0.084078
N       2.505748     -0.458164      0.281251
C       0.085622     -0.881559      0.532165
H      -3.184414      0.141712     -0.093278
H      -2.680140     -1.409622      0.777907
H      -1.059446      1.214236     -1.556010
H      -0.849095      1.982092      0.024870
H       1.395566      1.726396     -0.449267
H       2.711037     -1.351262      0.695737
H       3.088572     -0.255497     -0.515237
H       0.100567     -1.832039      1.042892
