10
Extracted from Q-Chem output
O      -0.308803      2.283128      0.126542
C      -0.129269      1.115459     -0.006501
C      -1.046547     -0.126548      0.103297
C       0.238716     -0.948772      0.045757
O       0.835243     -0.652931     -1.196568
C       1.107194      0.235388     -0.111529
H      -1.755509     -0.308013     -0.702623
H      -1.555166     -0.126449      1.068688
H       0.474696     -1.891004      0.520046
H       2.139444      0.419742      0.152890
