13
Extracted from Q-Chem output
O       0.601553      2.174623      0.805503
C       0.308599      1.033585      0.222297
N       1.157251      0.016956      0.323455
C       0.614163     -1.128391     -0.401934
C      -0.790112     -0.607720     -0.743421
C      -1.775789     -0.266084      0.299155
N      -0.774424      0.860440     -0.509206
H       1.916929     -0.003288      0.979711
H       0.588788     -2.021353      0.224689
H       1.217430     -1.332772     -1.290379
H      -1.155813     -0.878540     -1.729339
H      -0.139033      2.773031      0.643208
H      -1.263426     -0.391023      1.274030
