13
Extracted from Q-Chem output
O       0.343440      2.064073      0.884149
C       0.493419      1.071063      0.111433
N       1.321992      0.000012      0.175283
C       0.549971     -1.137765     -0.392805
C      -0.796336     -0.481457     -0.764456
C      -1.411151      0.376293      0.357854
N      -0.491135      0.907479     -0.826806
H       1.807609     -0.138728      1.047668
H       0.473642     -1.936247      0.346857
H       1.034245     -1.531403     -1.287987
H      -1.367329     -0.902139     -1.582089
H      -0.972755      1.737338      0.807985
H      -0.779740      0.040770      1.198716
