14
Extracted from Q-Chem output
C      -2.307334     -0.230251     -0.123978
C      -0.888928      0.176877      0.135289
N      -0.399824      1.340159      0.205482
O      -0.109533     -0.906215      0.299335
C       1.269276     -0.636165      0.477709
C       1.898462     -0.102228     -0.773968
O       3.069130      0.368294     -0.426687
H      -2.661331     -0.876461      0.679965
H      -2.955751      0.639882     -0.201996
H      -2.354868     -0.801120     -1.052264
H      -1.111767      2.044107      0.055687
H       1.433763      0.014871      1.341854
H       1.735953     -1.609336      0.664850
H       3.516384      0.681851     -1.219186
