14
Extracted from Q-Chem output
O       1.986000      1.972393     -0.130587
C       1.044585      1.364250      0.475932
C       0.097004      0.978884     -0.490693
C      -0.116859     -0.390541     -1.022748
C      -0.118882     -1.470368      0.049486
C      -1.180681     -0.605514      0.759103
N      -1.213514      0.376893     -0.376775
H       1.075854      1.287334      1.562849
H       1.209832      1.818647     -1.072419
H      -0.083117     -0.566837     -2.091409
H       0.824542     -1.674937      0.554793
H      -0.532196     -2.411694     -0.311125
H      -0.915435     -0.159323      1.719356
H      -2.148982     -1.093191      0.856795
