10
Extracted from Q-Chem output
O       1.360597     -1.542455      0.707778
C       0.929945     -0.769933     -0.261080
C      -0.595388      1.219852     -0.444591
C      -0.352361     -0.147171      0.181420
H       2.166755     -1.976503      0.409522
H      -0.503172      1.166129     -1.529924
H      -1.590453      1.592592     -0.197630
H       0.134216      1.948018     -0.086471
H      -1.103442     -0.859768     -0.193583
H      -0.453832     -0.133839      1.273808
