10
Extracted from Q-Chem output
O       1.463053     -0.801567      0.373404
C       0.349556     -0.749490     -0.431782
C      -0.376682      0.944283     -0.175343
C      -0.836427     -0.351866      0.397674
H       2.204563     -1.039673     -0.185268
H       0.374568      0.330135     -1.121795
H      -1.026462      1.456531     -0.876673
H       0.263954      1.560501      0.441414
H      -1.798461     -0.715421      0.055677
H      -0.689334     -0.472787      1.465614
