11
Extracted from Q-Chem output
C       1.390182      1.005066      0.245854
C       1.330164     -0.235732     -0.145493
C       0.219074     -0.832354     -0.636123
N      -1.211149     -1.070489      0.951528
C      -1.146092     -0.365170     -0.195772
C      -0.932225      1.317722     -0.185996
N       0.153454      1.810788     -0.119418
H       2.075822      1.557486      0.867745
H       0.208131     -1.638657     -1.360175
H      -0.398816     -0.860459      1.528173
H      -1.950532     -0.584941     -0.896078
