11
Extracted from Q-Chem output
N      -1.809097      1.036982      0.339033
C      -0.891799      0.102015     -0.173991
O      -0.626596     -1.109531      0.531077
C       0.406803     -0.125730      0.454760
C       1.586470     -0.453170     -0.311985
C       2.573727     -0.710582     -0.937478
H      -2.758304      0.814198      0.075385
H      -1.754017      1.117128      1.344787
H       0.608922      0.384194      1.394527
H      -0.965744     -0.028693     -1.249482
H       3.448705     -0.944813     -1.496651
