11
Extracted from Q-Chem output
N      -1.366636      1.145632     -0.007288
C      -0.990991     -0.226072      0.204954
O      -1.718334     -1.077697      0.835244
C       0.432943     -0.439614      0.594246
C       1.523336     -0.332731     -0.270759
C       2.493479     -0.192964     -0.970012
H      -2.320263      1.173318     -0.344770
H      -1.320913      1.666465      0.857990
H       0.582322     -0.988348      1.520994
H      -0.749039     -0.646314     -0.841631
H       3.344760     -0.053259     -1.595221
