14
Extracted from Q-Chem output
C      -2.264986      0.554143     -0.338776
C      -1.394013     -0.214939      0.296495
C      -0.149546     -0.789771     -0.308373
C       1.104262     -0.349803      0.432849
C       1.763905      0.961641      0.137835
C       2.391625     -0.080707     -0.282951
H      -2.132700      0.811214     -1.384944
H       1.696769      2.031351      0.230877
H      -3.142404      0.950930      0.157472
H      -1.564779     -0.446372      1.346476
H      -0.076427     -0.492771     -1.358270
H      -0.208414     -1.884491     -0.285330
H       1.152648     -0.728577      1.456520
H       3.233327     -0.512709     -0.795635
