16
smiles: [C-:6]#[O+:7].[C:1]([C@@:2]([O:3][H:12])([C:4]([N:5]([H:15])[H:16])([H:13])[H:14])[H:11])([H:8])([H:9])[H:10]
C       -1.83156200      -0.20616300      -0.13147500
C       -0.40496500      -0.53695000      -0.51240400
O        0.08927300       0.49435600      -1.33821700
C        0.50205400      -0.69507200       0.70318100
N        1.87915800      -0.87667900       0.25302100
C        0.15734100       3.09919500       0.44351300
O        0.31976100       3.80881400      -0.41213700
H       -2.26667900      -0.99926600       0.48031000
H       -2.44198000      -0.08819200      -1.02698900
H       -1.86462000       0.73079900       0.42842400
H       -0.39654600      -1.48955000      -1.06929100
H        1.05102300       0.40829000      -1.30859600
H        0.45671600       0.22878200       1.28629600
H        0.13237900      -1.51052600       1.33884300
H        2.04347000      -1.82511000      -0.05707000
H        2.54391200      -0.67364100       0.98447200
