12
Extracted from Q-Chem output
O       2.189772     -0.906256     -0.159193
C       1.168947     -0.314206     -0.847438
C      -0.731088      0.164314      1.069679
C      -1.476280      0.266119     -0.266608
C      -0.013633      0.205085     -0.213757
O       0.979158      1.090808     -0.682181
H       2.142369     -0.630045      0.760686
H       1.159154     -0.660582     -1.875360
H      -0.778004     -0.772460      1.611987
H      -0.713025      1.055128      1.684798
H      -1.925367      1.223594     -0.498974
H      -2.025081     -0.598537     -0.617327
