16
smiles: [C:1]([C@@:2]1([H:10])[C:3]([H:11])([H:12])[C@:4]1([C:5](=[O:6])[H:14])[H:13])([H:7])([H:8])[H:9].[H:15][H:16]
C       -1.54489300      -0.48323700       0.26104000
C       -0.89289500       0.64043100      -0.49917100
C        0.29527400       1.35082100       0.02764400
C        0.45987700       0.47664500      -1.19281700
C        1.20692400      -0.79178400      -1.08013700
O        1.42811500      -1.38069200      -0.05192700
H       -2.09234300      -1.14842800      -0.40967400
H       -0.81036600      -1.07602600       0.80485300
H       -2.25598200      -0.07708800       0.98335800
H       -1.57942500       1.24685000      -1.08011800
H        0.38530400       2.41925100      -0.11543500
H        0.74152100       0.95927500       0.93375000
H        0.55292100       0.96426100      -2.15535900
H        1.57280600      -1.20420600      -2.04231000
H        1.25702400      -0.87065200       3.24448900
H        1.36842100      -1.02270400       2.52410400
