16
Extracted from Q-Chem output
C      -1.604658     -0.463508      0.478321
C      -0.893675      0.481757     -0.456273
C       0.072782      1.515176      0.058069
C       0.562933      0.363521     -0.768730
C       1.456013     -0.722804     -0.244009
O       1.213586     -1.983547     -0.550775
H      -1.824702     -1.409189     -0.018489
H      -1.014940     -0.683967      1.369986
H      -2.543369     -0.024001      0.820717
H      -1.498663      0.795932     -1.299608
H       0.078610      2.504644     -0.379016
H       0.291371      1.496420      1.120482
H       0.857001      0.580298     -1.791820
H       2.510444     -0.398007     -0.185159
H       1.246585     -0.594770      1.162789
H       1.129871     -1.465909      0.754297
