10
Extracted from Q-Chem output
N       1.574133     -0.285939     -0.666133
C       0.327136      0.162867     -0.406264
C      -0.587581      1.071797     -0.363507
C      -1.024935     -0.326545     -0.056721
N      -1.332506     -0.710251      1.334906
O      -0.482253     -0.415767      2.122453
H       1.830676     -1.155359     -0.232907
H       2.306177      0.403602     -0.681747
H      -0.949429      2.075701     -0.471713
H      -1.656410     -0.897613     -0.735911
