15
Extracted from Q-Chem output
C      -1.564201      0.982227     -1.099842
C      -0.728314      0.170098     -0.450092
C      -1.101828     -0.468866      0.856599
N       0.500262     -0.200038     -0.996439
C       1.689188     -0.451481     -0.274692
C       1.867613     -0.197653      1.128505
N       2.417624      0.688801      0.446789
H       1.707025     -0.450872      2.168666
H      -2.558832      1.167961     -0.721290
H      -1.283289      1.462629     -2.029522
H      -0.835128     -1.527456      0.867212
H      -0.605078      0.015000      1.700273
H      -2.174004     -0.375057      1.017975
H       0.670068      0.196764     -1.907462
H       2.347620     -1.149899     -0.781227
