15
Extracted from Q-Chem output
C      -0.790469      1.175983     -0.314672
C      -0.473091     -0.171544     -0.237124
C      -1.369455     -1.165364      0.458817
N       0.556253     -0.720371     -1.109111
C       1.194254     -0.442663      0.141428
C       1.776772      0.883365      0.378177
N       2.979380      0.813714      0.348229
H       0.971331      1.729039      0.344139
H      -1.587328      1.575500      0.300679
H      -0.484235      1.781347     -1.157896
H      -2.187106     -1.451090     -0.205515
H      -0.830000     -2.071265      0.730139
H      -1.796847     -0.730376      1.362702
H       0.805828     -0.042214     -1.820395
H       1.532137     -1.295165      0.719193
