16
Extracted from Q-Chem output
C      -1.981241     -0.282693      0.605690
C      -0.733834      0.271540     -0.050970
O      -1.018809      1.614290     -0.414887
C       0.473349      0.198830      0.848254
C       1.321913     -1.033023      0.855406
C       1.847593      0.232091      0.243554
H      -2.212079      0.282705      1.510758
H      -1.837096     -1.330457      0.873756
H      -2.832820     -0.206611     -0.070988
H      -0.517112     -0.316424     -0.957219
H      -0.202112      2.019470     -0.714493
H       0.349971      0.713887      1.795689
H       1.741471     -1.363691      1.795896
H       1.046831     -1.836476      0.182862
H       1.925666      0.267094     -0.837317
H       2.628308      0.769468      0.765071
