16
Extracted from Q-Chem output
C      -1.980459     -0.188191      0.724842
C      -0.683604     -0.156958      0.153908
O      -0.997540      1.635205     -0.532956
C       0.530039      0.028179      0.955883
C       1.544034     -1.095151      0.913141
C       1.852380      0.224560      0.288246
H      -2.053023     -0.127363      1.804891
H      -2.729720     -0.798432      0.233709
H      -1.922946      1.035457      0.116327
H      -0.526072     -0.622538     -0.815374
H      -1.136697      1.701482     -1.484431
H       0.374940      0.509615      1.913186
H       2.026068     -1.360462      1.844297
H       1.336444     -1.935058      0.262531
H       1.848820      0.294132     -0.791962
H       2.562162      0.875583      0.779603
