12
smiles: [C:1]([C:5](=[O:6])[H:12])([H:7])([H:8])[H:9].[C:2](=[N:3][H:10])=[N:4][H:11]
C       -0.47123500       0.11360100       2.01557900
C       -0.32771200      -0.45654000      -2.62392500
N       -0.49871800       0.06010200      -1.53615200
N       -0.29051000      -1.07611200      -3.66999100
C        0.96875200       0.41649000       1.72989400
O        1.43318600       0.54686200       0.63134600
H       -1.04210700       0.04789700       1.09142000
H       -0.88637100       0.89139800       2.66162200
H       -0.53883800      -0.82764700       2.56753700
H        0.29822500       0.24961300      -0.94752000
H       -0.18504800      -0.57403300      -4.53859100
H        1.61835300       0.51720600       2.62544800
