15
smiles: [C:1]([C@@:2]12[C:3]([H:11])=[C:4]1[C:6]([H:14])([H:15])[O:7]2)([H:8])([H:9])[H:10].[O:5]([H:12])[H:13]
C        1.59636800      -0.33749900       0.78942900
C        0.66488000       0.23430100      -0.22030200
C        0.26110100      -0.30286100      -1.57244000
C       -0.67910600      -0.01859300      -0.69071100
O       -1.71605700      -1.39920300       1.93461500
C       -1.06783500       1.38491000      -0.31108200
O        0.35906400       1.65277000      -0.08639300
H        2.60892200       0.03882900       0.63077700
H        1.61769800      -1.42201400       0.68622300
H        1.28717300      -0.07228800       1.80209000
H        0.41379100      -0.20603600      -2.64003600
H       -0.82100800      -1.17949500       2.19627800
H       -1.66284100      -1.61848200       1.00357400
H       -1.50583800       1.98373900      -1.10942400
H       -1.61159300       1.51520900       0.62504900
