15
Extracted from Q-Chem output
C       1.854032     -0.062781      0.803238
C       0.662301      0.119128     -0.074055
C      -0.020237     -0.837373     -0.971220
C      -0.774621     -0.134191      0.024599
O      -1.360455     -1.196095      1.036314
C      -1.045281      1.344496     -0.004499
O       0.336534      1.551134     -0.340437
H       2.752740      0.233012      0.258094
H       1.960243     -1.112430      1.074835
H       1.786653      0.548464      1.705296
H      -0.162379     -0.685222     -2.037223
H      -0.776276     -1.827342      0.431857
H      -2.281900     -1.372195      0.790297
H      -1.736758      1.705851     -0.769748
H      -1.279908      1.789581      0.967441
