17
Extracted from Q-Chem output
C      -2.257862     -0.585707      0.048729
C      -0.883882     -0.430022     -0.581654
O      -0.973059      0.193530     -1.853004
C       0.087703      0.320142      0.333255
C       1.471922      0.400950     -0.236599
C       2.604629      0.279810      0.444713
O       2.745792      0.083131      1.780936
H      -2.203706     -1.147038      0.983639
H      -2.693723      0.393447      0.272027
H      -2.928095     -1.112139     -0.631160
H      -0.467150     -1.418771     -0.792550
H      -1.402020      1.046011     -1.743331
H      -0.319416      1.325739      0.509899
H       0.082411     -0.183030      1.307440
H       1.551512      0.566715     -1.303577
H       1.881300      0.072836      2.199141
H       3.571454      0.329409     -0.040404
