16
Extracted from Q-Chem output
C      -1.721013     -0.574907      0.071384
C      -0.263031     -0.179571      0.140430
C       0.724684     -0.964493     -0.472735
O       1.163401      0.554333     -1.694207
C       0.161677      0.655096      1.338993
O       1.491400      1.109263      1.238894
H      -1.952239     -1.088140     -0.863748
H      -1.994508     -1.242496      0.893607
H      -2.366295      0.303321      0.135371
H       0.077447      0.533224     -0.911658
H       0.447818     -1.722491     -1.195246
H       1.742146     -0.989893     -0.109324
H       1.293918      0.624659     -2.647788
H      -0.539660      1.493657      1.448481
H       0.106666      0.070744      2.263373
H       1.642923      1.409514      0.333281
