16
Extracted from Q-Chem output
C       2.212815     -0.006889     -0.578523
C       1.115274      0.000891      0.405362
C      -0.124195      0.722891      0.841235
C      -1.428791      0.670414      0.058687
C      -1.670777     -0.634735     -0.684177
C       0.519187     -0.495978      1.434545
H       2.912349     -0.821666     -0.391006
H       1.815516     -0.111146     -1.590766
H       2.756890      0.939853     -0.545023
H       0.001986      1.672966      1.368343
H      -2.256638      0.853174      0.752532
H      -1.444458      1.505250     -0.650741
H      -1.690975     -1.485692      0.000442
H      -2.623872     -0.609984     -1.215049
H      -0.886078     -0.830561     -1.419077
H       0.473959     -1.241698      2.209471
