15
Extracted from Q-Chem output
C      -1.855567      0.065049     -0.088828
N      -0.558440      0.183768      0.590957
C       0.391831     -0.951491      0.343081
C       1.276630     -0.045078     -0.533536
O       2.651077     -0.040714     -0.213137
C       0.496326      1.138422     -0.006856
H      -2.464401     -0.717293      0.370587
H      -2.373509      1.021101     -0.023220
H      -1.675338     -0.168689     -1.136722
H      -0.109843     -1.802117     -0.119231
H       0.880049     -1.259129      1.265428
H       1.220838     -0.306047     -1.597835
H       2.725146      0.671175      0.433962
H      -0.724164      0.361715      1.576051
H       0.008880      1.794708     -0.731194
