15
Extracted from Q-Chem output
C      -1.965460      0.041893      0.127749
N      -0.576923      0.059235      0.493730
C       0.348614     -1.031190      0.157765
C       1.400319     -0.074283     -0.437657
O       2.605052      0.035553      0.290130
C       0.452124      1.097030     -0.252249
H      -2.514861     -0.681530      0.733832
H      -2.393514      1.030950      0.297810
H      -2.085280     -0.208356     -0.934035
H      -0.109689     -1.670494     -0.600681
H       0.665387     -1.637057      1.008350
H       1.668781     -0.324977     -1.466383
H       2.527896      0.854253      0.789502
H      -0.057870      0.936322      1.005087
H      -0.027390      1.532579     -1.127152
