11
Extracted from Q-Chem output
N       1.792504     -0.186489     -0.550891
C       0.469668     -0.236539     -0.320399
C       0.001221      0.772084      0.707640
N      -1.145387      0.983993      1.146498
C      -2.264700     -0.454740      0.045848
N      -1.576747     -1.089920     -0.687220
N      -0.215682     -1.107457     -0.983480
H       2.372256      0.456756     -0.045407
H       2.208144     -0.822564     -1.206585
H       0.851125      1.373936      1.081270
H      -2.485536      0.326340      0.818440
