11
Extracted from Q-Chem output
N      -1.290882      1.098271      0.187193
C      -1.336129     -0.207658      0.549277
O      -2.310332     -0.718712      1.058556
C      -0.102697     -1.012781      0.285635
C       0.988279     -0.538549     -0.244511
C       2.063964     -0.038553     -0.773025
H      -2.102909      1.663961      0.350892
H      -0.475585      1.502630     -0.233711
H      -0.174039     -2.054118      0.576190
H       2.212078     -0.044944     -1.846818
H       2.846354      0.381447     -0.151490
