11
Extracted from Q-Chem output
N      -1.163423      1.143899      0.263244
C      -1.284542     -0.205318      0.339822
O      -2.334614     -0.775785      0.556488
C      -0.027979     -0.978736      0.167885
C       1.202187     -0.412178     -0.118389
C       2.221717      0.365781     -0.119303
H      -1.964676      1.699155      0.502730
H      -0.263549      1.583067      0.195104
H      -0.138240     -2.054361      0.201109
H       1.114002     -1.112629     -1.033068
H       2.764773      0.745204     -0.974782
