12
Extracted from Q-Chem output
N      -1.904614     -0.211595     -0.102222
C      -0.433546     -0.104495     -0.039178
C       0.319612      1.035561      0.121615
N       1.595913      0.564270      0.112568
C       1.578490     -0.810835     -0.050071
C       0.289019     -1.300672     -0.154169
H      -2.322864      0.261229     -0.900719
H      -2.380362      0.080171      0.748997
H       0.092127      2.083852      0.238903
H       2.413174      1.139860      0.209742
H       2.526534     -1.330855     -0.076462
H      -1.997906     -1.232549     -0.218638
