17
Extracted from Q-Chem output
C       2.232068      0.205636     -0.311954
C       1.263838     -0.732854     -0.572703
C      -0.492623     -0.174660      0.345939
C      -1.566703     -0.511376     -0.661543
O      -0.536601     -0.947114      1.469254
C      -0.073686      1.266432      0.612213
C      -1.100311      1.930592      0.867253
H       2.880769      0.117773      0.551110
H       1.064956      1.392561      0.495171
H       2.506922      0.950514     -1.048389
H       1.266988     -1.666350     -0.021217
H       0.866580     -0.795739     -1.581255
H      -2.568360     -0.518235     -0.222906
H      -1.559104      0.197702     -1.486586
H      -1.370984     -1.510725     -1.061714
H      -1.338477     -1.476466      1.480303
H      -1.863807      2.632442      1.119548
