9
Extracted from Q-Chem output
C      -1.280574      0.127105      0.208300
N       0.710285      0.621322     -0.712757
C       1.464811     -0.232760     -0.098019
O       1.454394     -1.184588      0.639233
H      -0.792425     -0.218666      1.110855
H      -1.706669      1.120117      0.294846
H      -1.985202     -0.613265     -0.170108
H      -0.556766      0.180823     -0.719894
H       2.408415      0.259441     -0.532184
