12
Extracted from Q-Chem output
C      -2.328802     -0.298034     -0.776101
N      -1.040198     -0.693911     -0.258911
C      -0.111821      0.148779     -0.292665
N       1.154357     -0.170844      0.190892
C       2.155407      0.707346      0.165041
O       3.224924      0.110831      0.693406
H      -3.080978     -0.409491      0.007204
H      -2.355336      0.734885     -1.146743
H      -2.611113     -0.969086     -1.589696
H      -0.177401      1.168560     -0.680449
H       1.265982     -1.110294      0.564358
H       3.943640      0.744973      0.673811
