12
Extracted from Q-Chem output
C      -2.285306     -0.228170     -0.785157
N      -1.029115     -0.699900     -0.252263
C      -0.056362      0.090756     -0.253140
N       1.180371     -0.304954      0.246538
C       2.253871      0.484308      0.273229
O       3.359055      0.007639      0.763114
H      -3.055822     -0.312712     -0.016681
H      -2.250840      0.810556     -1.138574
H      -2.586871     -0.870471     -1.614699
H      -0.064648      1.119163     -0.624780
H       1.261848     -1.251456      0.610063
H       3.283521      1.142188      0.331401
