17
Extracted from Q-Chem output
C       1.859375      1.207294     -0.261401
C       0.150622     -1.518203      0.242721
C      -1.070026     -1.560279      0.996719
C      -0.979108     -0.261308      0.012256
C      -0.272191     -1.213665     -1.094778
C      -0.577354      1.101683      0.453448
C       0.588645      1.727696      0.332440
H       1.915319      1.443115     -1.328732
H       2.721253      1.678931      0.212548
H       1.935396      0.127033     -0.133664
H      -1.008869     -1.405440      2.069829
H      -1.952204     -2.129406      0.682903
H      -1.998154     -0.248561     -0.364510
H       0.454944     -0.783230     -1.777228
H      -1.085041     -1.742278     -1.604983
H      -1.392275      1.652065      0.917249
H       0.620095      2.746208      0.710071
