14
Extracted from Q-Chem output
O       1.919938      1.454072      0.306877
N       1.674262      0.529860     -0.754008
C       0.355941      0.053538     -0.474827
C      -0.251995     -1.342441     -0.643265
C      -1.377433     -0.898621      0.340149
C      -0.587208      0.358975      0.502083
O      -0.690464      1.322563      1.406246
H       2.597374      2.028922     -0.054688
H       0.384804     -2.122203     -0.227100
H      -0.555477     -1.615184     -1.652482
H      -1.427045     -1.512189      1.243777
H      -2.383655     -0.794754     -0.071460
H       0.245528      0.789415     -1.356245
H       0.141862      1.819841      1.369104
