15
smiles: [C:1]([C@@:2]1([H:11])[C:3]([H:12])([H:13])[N:4]=[C:5]1[H:15])([H:8])([H:9])[H:10].[C:6]=[N:7][H:14]
C        2.31630400      -0.05924100       0.12127800
C        1.00319900       0.62814300       0.44317500
C       -0.06776400       0.72572400      -0.67694600
N       -0.98304700      -0.09960700       0.15433200
C       -0.09556700      -0.18646900       1.06895800
C       -4.50644400      -1.55119500      -0.95393900
N       -3.48545700      -1.13076100      -0.59033700
H        2.14646700      -1.00607900      -0.39649300
H        2.93553500       0.57019700      -0.52111100
H        2.88539400      -0.26963800       1.02902700
H        1.17785900       1.57837100       0.95532500
H        0.19699900       0.23520400      -1.61574500
H       -0.46712000       1.71910900      -0.88796500
H       -2.61074000      -0.77051000      -0.27819700
H       -0.19388900      -0.72331300       2.01211900
