9
smiles: [C:4](#[N:5])[H:8].[O:1]1/[C:2](=[N:3]\[H:7])[N:6]1[H:9]
O       -1.77387500       1.92254200      -0.32478300
C       -0.79096800       1.03901000      -0.24690300
N        0.43332100       0.86231200      -0.23245400
C        1.82512900      -1.97527900       0.24303700
N        2.27424200      -3.00458700       0.45922800
N       -2.01869600       0.40779900      -0.21291300
H        0.94658900       1.73236600      -0.33261900
H        1.40541000      -1.01379000       0.04129200
H       -2.29505200       0.27200100       0.76191100
