10
Extracted from Q-Chem output
C      -1.238902      0.289204     -0.219236
C      -0.390736      1.147203      0.340512
N       0.585343      0.164074      0.786830
C       1.458115     -0.283018     -0.257335
N       0.764658     -1.189437     -0.826733
C      -0.321246     -0.850828      0.127048
H      -2.204049      0.346177     -0.695605
H      -0.312455      2.214907      0.490219
H       2.461077      0.070713     -0.471426
H      -0.674858     -1.680865      0.734942
