16
Extracted from Q-Chem output
C      -1.742567      0.244547     -1.431502
C      -1.760951     -0.568125     -0.161677
C      -0.652213      0.402957     -0.436073
O       0.591875     -0.088808     -0.807855
C       1.362842     -0.600229      0.263140
C       1.915059      0.478168      1.178736
H      -2.456397      1.048753     -1.549375
H      -1.481731     -0.276551     -2.342803
H      -2.487843     -0.328514      0.603156
H      -1.522351     -1.619823     -0.254038
H       1.120171      1.003235      1.711210
H      -0.631391      1.321830      0.144649
H       2.181358     -1.146614     -0.208802
H       0.765812     -1.320003      0.838210
H       2.488323      1.208107      0.604952
H       2.574797      0.031670      1.925510
