16
Extracted from Q-Chem output
C      -1.094512     -1.141523     -0.207137
C      -1.529875      0.214131     -0.034631
C      -0.413372      1.261374      0.195593
O       0.616959      1.342132     -0.676717
C       1.479776      0.176303     -0.580744
C       1.212637     -0.472622      0.755204
H      -0.626437     -1.447377     -1.132774
H      -1.530461     -1.935566      0.385419
H      -1.952059      0.601718     -0.976457
H      -2.269422      0.350203      0.754737
H       0.216218      0.312977      1.051726
H      -0.796787      2.267477      0.382195
H       2.490953      0.560377     -0.720016
H       1.247739     -0.506711     -1.400749
H       1.863420     -0.125169      1.562188
H       1.223624     -1.554136      0.727178
