14
Extracted from Q-Chem output
C      -1.597155     -0.733835      0.499063
C      -1.478417      0.495478     -0.273230
C      -0.162128      1.163628     -0.206024
N       0.981610      0.599997      0.497217
C       1.656175     -0.539175      0.145543
O       2.385199     -1.137910      0.885228
O       1.453818     -0.967426     -1.122919
H      -0.907407     -0.899895      1.334756
H      -1.298253     -1.453512     -0.291122
H      -2.624463     -0.994392      0.749211
H       0.995284     -0.312140     -1.655635
H      -0.425754      2.118642      0.272333
H       0.119826      1.497166     -1.213558
H       1.129122      0.852499      1.458978
