12
Extracted from Q-Chem output
O      -0.072342      1.185881     -1.288105
C       0.174825      0.053312     -0.545855
C      -0.891331     -1.034886     -0.559341
C      -0.741883     -0.154951      0.643501
C       1.424108      0.030759      0.146344
O       2.447562     -0.432034      0.403511
H      -0.630457      1.764743     -0.750110
H      -0.672486     -2.090545     -0.442520
H      -1.583715     -0.808693     -1.361665
H      -0.272004     -0.742808      1.440700
H      -0.060066      1.101990      1.199071
H       0.875219      1.268890      1.175030
