11
Extracted from Q-Chem output
O       1.032694     -1.386165     -0.711752
C       1.457421     -0.326065     -0.215632
C       0.637316      0.648184      0.329539
C      -0.810935      0.700976     -0.152776
C      -1.026248     -0.691972      0.104072
H       2.539071     -0.118691     -0.249314
H       0.982670      1.382197      1.045557
H      -1.345751      1.349340      0.541768
H      -0.955198      1.022719     -1.182921
H      -1.083227     -1.025117      1.131700
H      -1.221720     -1.419705     -0.667281
