7
Extracted from Q-Chem output
C      -0.663071     -0.214659     -0.228009
C       1.327234      0.510161      0.904455
O       0.086370      0.172763      0.940233
H      -1.038363     -1.222996     -0.061927
H      -1.496708      0.477551     -0.332654
H      -0.015895     -0.179975     -1.106987
H       1.657589      0.436079     -0.170110
