7
Extracted from Q-Chem output
C      -0.584151     -0.200682     -0.095804
C       1.196804      0.026073      0.346439
O       0.055984      0.002605      1.146804
H      -1.170473     -1.115867     -0.078219
H      -1.100462      0.683264     -0.461272
H       0.273963     -0.492098     -0.826129
H       1.238343      1.068756     -0.066618
