18
Extracted from Q-Chem output
C       1.643896      0.681444     -1.310092
C       0.812295     -0.289883     -0.565922
C       1.050164     -0.522382      0.869847
N       0.022490      0.343987      1.439908
C      -1.270369     -0.279749      1.375601
C      -1.886872     -0.043519     -0.058993
O      -0.946913      0.776396     -0.735908
H       1.180997      1.019999     -2.233948
H       2.583022      0.168234     -1.553376
H       1.896317      1.536605     -0.682177
H       0.293695     -1.040834     -1.151420
H       2.041693     -0.172881      1.171217
H       0.937136     -1.579810      1.147913
H      -1.252682     -1.357679      1.596854
H      -1.913688      0.201579      2.115845
H      -2.023259     -0.963531     -0.634952
H      -2.843736      0.478082     -0.004364
H      -0.470962      1.164731      0.096301
