14
Extracted from Q-Chem output
C       1.359978     -0.912098      0.425694
C       0.443257      0.141835     -0.118843
C       0.831778      1.269750     -0.700344
O      -0.837124     -1.971674     -1.219918
C      -1.009518     -0.097108      0.040881
O      -1.598529     -1.119828     -0.387504
N      -1.754550      0.807847      0.686734
H       2.397082     -0.654858      0.214660
H       1.238264     -1.003459      1.508443
H       1.106876     -1.869179     -0.029863
H       0.120818      1.988314     -1.090256
H       1.883755      1.482821     -0.845789
H      -2.740457      0.648168      0.802574
H      -1.310693      1.562165      1.174257
