13
Extracted from Q-Chem output
C       1.276053     -0.580914      0.347886
C       0.841167      0.851423      0.164661
C       0.364769     -0.241657     -0.781006
C      -1.107488     -0.397289     -0.504219
N      -1.290942      0.508309      0.648508
C      -0.289624      1.252773      1.045908
H       2.305332     -0.813134      0.108591
H       0.875495     -1.122104      1.198266
H       1.589622      1.581924     -0.106816
H       0.721397     -0.309501     -1.798976
H      -1.395195     -1.416498     -0.234126
H      -2.178081      0.536617      1.125237
H      -1.727082     -0.073566     -1.344568
