13
Extracted from Q-Chem output
C      -2.201955     -0.098189      0.025133
C      -0.827640      0.044727     -0.553013
N      -0.834761     -0.006435     -2.020927
O       0.232608     -0.118324     -2.544585
C       1.446383      0.519837      0.634698
N       2.357148     -0.396449      1.146491
C       0.288437      0.251230      0.094356
H      -2.643181     -1.053780     -0.266520
H      -2.171202     -0.040596      1.111165
H      -2.855686      0.690200     -0.353561
H       3.315097     -0.091890      1.105536
H       2.243974     -1.337922      0.806930
H       1.716633      1.563035      0.773003
