13
Extracted from Q-Chem output
C      -2.368706     -0.011248     -0.007548
C      -0.885456      0.012913     -0.157255
N      -0.349191     -0.136715     -1.341314
O       0.977064     -0.113932     -1.240646
C       1.281081      0.175662      0.138223
N       2.563061     -0.190748      0.555987
C       0.076043      0.154817      0.918065
H      -2.850268     -0.195262     -0.967030
H      -2.660125     -0.791579      0.696466
H      -2.723747      0.938086      0.395557
H       3.268470     -0.038484     -0.148047
H       2.598309     -1.134506      0.907038
H       1.106198      1.305751      0.219853
