14
Extracted from Q-Chem output
C      -2.265708      0.209392     -0.063060
C      -0.862203      0.087653     -0.272935
C      -0.516995     -1.125363      0.363713
O       0.916009     -1.069953      0.574995
C       1.319446      0.024212     -0.065526
N       2.646833      0.294203      0.024388
C       0.314820      0.736506     -0.691862
H      -1.847729     -1.044665      0.776785
H      -2.930762      0.634936     -0.812501
H      -2.534711      0.492844      0.948649
H      -0.729830     -2.036833     -0.190261
H       3.157180     -0.201792      0.733471
H       2.942287      1.235344     -0.158682
H       0.434584      1.694428     -1.171232
