14
Extracted from Q-Chem output
C      -1.461796     -1.059308     -0.603302
C      -0.721656      0.248353     -0.619443
C      -0.185586      0.884492      0.603937
C       0.816199      0.404053     -0.479244
C       1.719195     -0.233277      0.361130
O       2.269012     -1.127286      0.839955
H      -1.077305     -1.723671      0.171624
H      -2.520190     -0.880524     -0.404249
H      -1.381532     -1.566685     -1.566153
H      -0.992571      0.905274     -1.443032
H      -0.249527      0.150667      1.418950
H       0.890814      1.634604      1.215599
H       1.246475      1.251680     -1.000663
H       1.828520      1.341266      1.349254
