11
smiles: [C-:1]([N+:2]1=[C:3]([H:8])[C:4]1([H:10])[H:11])([H:6])[H:7].[H:5][H:9]
C        1.43761100       0.21558900      -0.09803300
N        0.21415700      -0.18198900      -0.21028500
C       -0.85931700      -0.87622600       0.12252700
C       -0.86010600      -0.18615600      -1.18773800
H       -0.22797800       1.34804300       2.49802500
H        1.81224700       0.93905400      -0.80488200
H        2.03368400      -0.14438200       0.72789900
H       -0.88978900      -1.90895400       0.43159700
H       -0.65216700       0.87558300       2.10917800
H       -0.58952800      -0.68226300      -2.12250800
H       -1.42433900       0.73625500      -1.30265400
