11
Extracted from Q-Chem output
C       1.335943      0.398083      0.185387
N       0.362270     -0.374802     -0.262568
C      -0.766456     -0.847378      0.281611
C      -0.852996     -0.103061     -0.999583
H       0.012199      1.007086      1.412107
H       1.748973      1.132865     -0.493631
H       1.965926      0.000025      0.970973
H      -1.027487     -1.843552      0.601597
H      -0.633427      0.426457      1.389978
H      -0.909734     -0.576942     -1.975593
H      -1.240735      0.915771     -0.947151
