16
Extracted from Q-Chem output
C       1.404399     -0.435308      0.504668
C       0.168534      0.089385     -0.180227
C      -0.047130      1.571002     -0.124879
C      -1.044720      1.141468      0.886521
C      -1.184457     -0.848543      0.028544
C      -0.419953     -0.774697     -1.243306
H       1.588710      0.083764      1.445869
H       2.270127     -0.285259     -0.145574
H       1.326686     -1.503923      0.714930
H       0.858577      2.074987      0.211211
H      -0.446141      2.028548     -1.029148
H      -0.502714      0.926567      1.820266
H      -0.970442     -1.671300      0.698199
H      -2.212841     -0.541059      0.012994
H      -0.907131     -0.282151     -2.075589
H       0.186372     -1.627404     -1.524060
