13
Extracted from Q-Chem output
O      -2.809461      0.111492      1.029207
C      -1.778901     -0.323850      0.606223
C      -0.452994      0.388029      0.786502
N       0.670035     -0.326515      0.206883
C       0.909338     -0.244182     -1.243693
C       1.944709      0.355533     -0.358865
H      -1.741946     -1.281967      0.044219
H      -0.274580      0.555557      1.851384
H      -0.513800      1.370511      0.313392
H       0.128421      0.328177     -1.747432
H       1.104310     -1.199669     -1.724418
H       0.867116     -1.215822      0.641858
H       1.735805      1.426864     -0.244302
