13
Extracted from Q-Chem output
O      -2.899228      0.325930      0.776776
C      -1.895505     -0.313007      0.643369
C      -0.511189      0.300456      0.725864
N       0.473095     -0.561219      0.102925
C       0.900671     -0.254349     -1.256335
C       1.953830      0.236630     -0.336700
H      -1.916312     -1.406578      0.459826
H      -0.270129      0.419091      1.787005
H      -0.540468      1.302342      0.283723
H       0.243957      0.470363     -1.731292
H       1.088129     -1.126899     -1.875373
H       1.479502     -0.703957      0.598674
H       1.749654      1.280163     -0.068867
