15
Extracted from Q-Chem output
C      -1.083380      0.295114     -0.982134
C      -1.794079      0.095371      0.340703
C      -0.340279     -0.125879      0.222917
C       0.687686     -1.136175      0.559069
C       2.207035      0.991203     -1.024771
O       1.845457      1.141486      0.200912
C       0.881251      0.318046      0.892370
H      -1.248461     -0.438194     -1.761157
H      -0.947207      1.311210     -1.332945
H      -2.136743      0.977311      0.866922
H      -2.430840     -0.774524      0.441832
H       0.529043     -1.812878      1.389590
H       1.273826     -1.540435     -0.259439
H       1.671567      0.098831     -1.443385
H       0.862624      0.632499      1.926307
