16
Extracted from Q-Chem output
C       1.834994      0.149853      0.518952
C       0.860821      0.324835     -0.639523
C      -0.575360      0.100459     -0.217937
C      -0.949124     -1.329461      0.082188
C      -1.269435      1.196198      0.493644
O      -1.539776      0.672024     -1.141660
H       1.826435     -0.869940      0.908849
H       1.581538      0.828297      1.336331
H       2.855240      0.372426      0.204698
H       1.107192     -0.361093     -1.456220
H       0.938990      1.340348     -1.033518
H      -0.653191     -1.992216     -0.733501
H      -0.447901     -1.667206      0.990326
H      -2.025439     -1.416881      0.230202
H      -1.430821      1.710828     -0.801473
H      -2.150914      0.815153      1.020615
