13
Extracted from Q-Chem output
C      -1.227721     -0.722926      0.351262
C      -0.486984      0.076741     -0.674263
C       0.231481      1.259741      0.022300
O       0.931368      0.683710      1.088741
C       1.463033     -1.002690     -0.182292
N       0.696146     -0.773011     -1.048419
H      -1.056541     -1.791855      0.282742
H      -2.299584     -0.520382      0.347108
H       0.194882      0.063181      1.429391
H      -1.025386      0.402019     -1.569167
H      -0.547043      1.937088      0.379568
H       0.930398      1.795382     -0.621714
H       2.338981     -1.433211      0.260912
