14
Extracted from Q-Chem output
O       1.506759      1.645398      0.013773
C       1.338886      0.298824      0.098923
C      -0.152305      0.108579      0.022493
O      -0.771833      1.034050      0.674850
C      -0.917599     -1.160335     -0.222231
O      -1.278404     -1.757412      1.001079
H       0.656100      1.546784     -1.173608
H       1.850092     -0.302305     -0.664409
H       1.614951     -0.099066      1.090661
H       0.051646      1.016740     -1.549817
H      -0.032795      1.736622      0.721949
H      -1.786183     -0.930742     -0.849101
H      -0.285289     -1.869826     -0.754363
H      -1.879519     -1.169792      1.465725
