12
Extracted from Q-Chem output
C      -1.695910     -0.155111      0.224385
C      -0.021965      0.340425     -0.031917
C       0.911409     -0.578311     -0.255252
N       2.303113     -0.217093     -0.081293
N       2.756790      0.883634      0.110895
C      -0.755675      1.330779      0.390282
H      -2.579868      0.458093      0.054837
H      -1.653649     -0.840209     -0.628744
H      -1.753208     -0.675409      1.171846
H       0.701624     -1.594600     -0.552841
H       2.904400     -1.065639     -0.134924
H      -1.117061      2.113442     -0.267274
