13
Extracted from Q-Chem output
C       1.575937     -0.596082      0.264089
C       0.731016      0.380880      1.001257
C      -0.018525      1.166120      0.029461
C      -0.123924      0.079371     -1.052496
C      -1.134747     -0.583469     -0.112324
N      -0.765279      0.318275      1.007692
H       1.211787     -1.627155      0.415196
H       0.930369     -0.407112     -1.134815
H       1.147697      0.810062      1.904552
H      -0.128970      2.238100     -0.057758
H      -0.389884      0.273802     -2.089541
H      -1.059741     -1.654751      0.083856
H      -2.156156     -0.344533     -0.409129
