11
Extracted from Q-Chem output
N       0.514866      0.081153      0.539396
C       1.207349     -0.648926     -0.138900
C       1.994486     -1.448570     -0.805471
C      -1.775921      0.779819      0.990727
C      -0.624603      0.803720      0.007806
O      -2.900724      1.048356      0.680995
H       1.766996     -2.502704     -0.872838
H       2.879908     -1.059424     -1.287102
H      -1.498729      0.512206      2.029998
H      -0.341444      1.854929     -0.113228
H      -0.966443      0.434348     -0.963137
