11
Extracted from Q-Chem output
C      -1.755228     -0.220050     -0.003766
N      -0.425034      0.056830     -0.052422
C       0.278504      1.179275     -0.293623
N       1.606058      0.993532     -0.091514
C       1.733572     -0.247854      0.255165
N       0.512281     -0.865845      0.259943
H      -2.389541      0.572750     -0.364766
H      -2.023262     -1.248290     -0.194913
H       0.219977     -1.733209      0.672812
H      -0.198111      2.091706     -0.602077
H       2.645100     -0.781459      0.468420
