17
Extracted from Q-Chem output
C       1.687428     -1.088387     -0.183721
C       0.384525     -0.360438     -0.034007
C      -1.015849     -0.981921     -0.065948
C      -1.352680      0.491414     -0.109388
C      -0.004358      2.004651     -0.139078
C       0.034996      0.480034      1.214866
C      -0.157361      0.800345     -0.968640
H       1.828652     -1.809089      0.625279
H       1.728962     -1.630484     -1.130418
H       2.519993     -0.381929     -0.158392
H      -1.316713     -1.565651      0.808162
H      -1.284021     -1.483000     -0.999567
H      -2.312042      0.994659     -0.106741
H      -0.827061      2.714420     -0.346264
H      -0.528674     -0.067811      1.975862
H       0.785325      1.092954      1.693033
H      -0.215990      0.768635     -2.054028
