9
Extracted from Q-Chem output
O       1.903954     -0.999839      0.213657
C       1.679636      0.093876     -0.206639
O       0.457026      0.614572     -0.380576
C      -0.610762     -0.253562     -0.012735
C      -1.869343      0.446673     -0.257615
N      -2.875339      0.964297     -0.436350
H       2.432174      0.831376     -0.510426
H      -0.579298     -1.172712     -0.600662
H      -0.538049     -0.524681      1.042199
