13
Extracted from Q-Chem output
C       1.147663     -0.589953     -0.009849
C       1.127326      0.695344      0.755765
C      -0.166240      1.107078      0.458438
C      -0.152091     -0.153275     -0.684845
C      -1.465406     -0.655240     -0.220890
N      -1.145023      0.089901      0.983125
H       1.105892     -1.536165      0.530435
H       1.990745     -0.613943     -0.710024
H       1.976324      1.264193      1.124896
H      -0.508424      2.136520      0.345712
H      -0.043451      0.273763     -1.679726
H      -1.555924     -1.732347     -0.062914
H      -2.312705     -0.290651     -0.821084
