11
smiles: [C:1]([N:2]1[C:5]([H:11])=[N:6]1)([H:7])([H:8])[H:9].[C:3](#[N:4])[H:10]
C       -1.36305200      -0.63578300       0.23015500
N        0.03823500      -0.33013200      -0.04842800
C        1.18253300       2.58910100      -0.11321100
N        1.61653800       3.64717800      -0.11346100
C        0.87521700      -1.44310900      -0.08215900
N        0.60190700      -1.22087300      -1.26486700
H       -1.99134600       0.05774400      -0.32813900
H       -1.64066800      -1.66167300      -0.03261100
H       -1.53718700      -0.47756900       1.29796200
H        0.77710900       1.60071700      -0.11287500
H        1.43757000      -2.10018700       0.56824500
