14
Extracted from Q-Chem output
C       1.999074     -0.131713      0.366115
O       0.840593      0.570775      0.771187
C      -0.107351      0.684784     -0.214361
C      -1.070046     -0.922725     -0.329239
O      -2.383544     -0.765925     -0.352425
C      -1.430432      0.915640      0.141716
H       1.778932     -1.178001      0.132975
H       2.455804      0.340895     -0.510898
H       2.699189     -0.091419      1.197801
H       0.253623      0.973953     -1.197970
H      -0.615899     -1.324382      0.593739
H      -0.593883     -1.368671     -1.222706
H      -1.714782      0.911207      1.185239
H      -2.108882      1.382607     -0.553102
