14
Extracted from Q-Chem output
O       1.394240      0.673643      1.537035
C       0.574967      0.296776      0.481461
C       0.718363      0.903691     -0.869618
C      -0.481775      1.255073     -0.023172
C      -1.339458     -0.599184     -0.332133
C      -0.138042     -1.028008      0.498670
H       2.287197      0.376363      1.349005
H       1.393820      1.750888     -0.923293
H       0.676052      0.309178     -1.775309
H      -1.551828      0.698608     -0.217344
H      -2.316732     -0.849163      0.079350
H      -1.292171     -0.795606     -1.399302
H      -0.441484     -1.260821      1.519606
H       0.411438     -1.884995      0.098789
