10
Extracted from Q-Chem output
C      -1.492010      0.185219      0.227954
C      -0.226939     -0.259072     -0.388928
C       1.852249     -0.121581      0.012913
O       0.720902     -0.726461      0.417686
H      -1.758438     -0.499783      1.038934
H      -2.299168      0.210991     -0.503882
H      -1.410550      1.184933      0.675339
H       0.021964     -0.181894     -1.436572
H       2.747639     -0.724216      0.006652
H       1.839681      0.948516     -0.095284
