13
Extracted from Q-Chem output
N       2.280372      0.175289      1.685054
C       1.763498      0.257420      0.663545
C       1.111870      0.361210     -0.620699
C      -0.034388     -0.498703     -0.981009
C      -0.866709     -0.872249      0.231429
C      -0.992152      0.646534      0.472475
N      -0.217120      0.968497     -0.769607
H       1.782526      0.645051     -1.422186
H      -0.088380     -0.951182     -1.963780
H      -1.813204     -1.336558     -0.036049
H      -0.370462     -1.473011      0.993668
H      -2.005130      1.026529      0.363180
H      -0.550720      1.051173      1.383977
