13
Extracted from Q-Chem output
N       2.249516      0.481743      1.829477
C       1.701984      0.413648      0.823940
C       1.090137      0.369639     -0.487838
C      -0.000659     -0.654376     -0.854628
C      -0.802723     -1.383416      0.049449
C      -0.916163      1.124002      0.412734
N      -0.222670      0.861209     -0.699131
H       1.785955      0.559189     -1.296888
H       0.224861     -1.072174     -1.837362
H      -1.743091     -0.997226      0.394312
H      -0.704110     -2.462741      0.063632
H      -1.995520      1.098823      0.351545
H      -0.441208      1.647277      1.233302
