11
Extracted from Q-Chem output
C       2.794214     -0.479041      0.191546
C       1.621392     -0.248051      0.101891
C       0.233594      0.034217     -0.009155
C      -0.822424     -0.797379      0.296203
N      -1.939043     -0.100771      0.027889
N      -1.697357      1.130228     -0.432247
C      -0.384317      1.225225     -0.459308
H       3.835092     -0.684642      0.272506
H      -0.843329     -1.806150      0.674823
H      -2.889684     -0.405089      0.134881
H       0.091863      2.131453     -0.799030
