16
Extracted from Q-Chem output
C      -2.469196     -0.351953      0.266467
C      -1.059693      0.080947      0.068883
C      -0.550002      1.357120     -0.141743
C       0.835737      1.254909     -0.161913
C       1.212936     -0.119055     -0.014987
C       2.396339     -0.842678     -0.648709
N      -0.030416     -0.779160      0.154951
H      -2.646520     -0.638304      1.306428
H      -3.152822      0.456981      0.015828
H      -2.712207     -1.211618     -0.361908
H      -1.142741      2.256024     -0.206747
H       1.551370      2.059279     -0.235491
H       3.094499     -0.143134     -1.105508
H       1.859581     -0.104524      0.907481
H       2.900895     -1.527663      0.034940
H      -0.108218     -1.779515      0.118163
