12
Extracted from Q-Chem output
O       1.904310     -0.514635      1.145445
C       0.833856     -0.074401      0.446946
C      -0.253207     -0.979679     -0.056182
C      -1.178087     -0.020853     -0.748614
C      -0.676982      1.215723     -0.641543
C       0.582348      1.196473      0.105170
H      -0.745670     -1.507479      0.768530
H       0.142605     -1.739280     -0.739834
H      -2.091667     -0.315887     -1.243138
H       1.848859     -1.464593      1.259202
H      -1.125825      2.113736     -1.045221
H       1.199006      2.051498      0.338493
