11
Extracted from Q-Chem output
N       2.017545     -0.115149      0.163299
C       0.654202     -0.094412      0.043765
C      -0.317200      0.787608      0.237366
C      -1.595656      0.048939     -0.004447
C      -1.192754     -1.350061     -0.375105
O       0.121831     -1.350872     -0.318265
H       2.476860     -0.795809     -0.419417
H       2.463306      0.785691      0.159255
H      -0.201538      1.821411      0.516587
H      -2.220074      0.442621     -0.815228
H      -2.262825     -0.025790      0.863448
