13
Extracted from Q-Chem output
C       0.487294     -0.834114      0.305814
C      -0.754192     -0.930847      1.152413
O      -1.228582     -0.022962      1.777044
C      -0.771068      1.077177     -1.400751
N       0.318089      1.426850     -0.883400
C       1.008845      0.577040      0.066365
H       1.252828     -1.411817      0.838442
H       0.320880     -1.382017     -0.627926
H      -1.287367      0.131835     -1.198751
H      -1.217526     -1.939601      1.191968
H      -1.258002      1.752294     -2.102110
H       1.021980      1.122901      1.013207
H       2.047623      0.524467     -0.268060
