13
Extracted from Q-Chem output
C       0.589351     -0.813520      0.347703
C      -0.915149     -0.613012      0.402242
O      -1.384518      0.443856      1.025348
C      -0.862954      0.989213     -0.734734
N       0.313633      1.325774     -0.827563
C       1.253993      0.519406     -0.059879
H       0.929325     -1.097400      1.345081
H       0.827314     -1.632050     -0.336318
H      -1.109259     -0.353315     -0.866548
H      -1.492535     -1.554771      0.448264
H      -1.830507      1.375678     -1.010504
H       1.505508      1.094432      0.831465
H       2.171106      0.368612     -0.629278
