13
Extracted from Q-Chem output
C      -1.452784     -0.481481      0.106110
N      -0.703600      0.650012      0.627419
C      -0.211951     -0.710551      0.884685
C       1.017582     -0.890980      0.067677
C       1.254531      0.204016     -0.641493
C       0.228246      1.264359     -0.330291
H      -2.423365     -0.625512      0.566931
H      -0.311107      1.607312     -1.218631
H      -1.405740     -0.689055     -0.959358
H      -0.254549     -1.080807      1.902944
H       1.601726     -1.801249      0.056992
H       2.053249      0.337402     -1.359639
H       0.684986      2.146786      0.127647
