9
Extracted from Q-Chem output
N      -1.063943     -0.882835      0.326398
C      -0.826232      0.523921      0.163614
C       0.543542      0.707857     -0.039262
C       1.054317     -0.573034     -0.012827
N       0.090619     -1.494066      0.155886
H      -1.355507     -0.197812     -0.732779
H      -1.601774      1.224952      0.437570
H       1.068516      1.638057     -0.179063
H       2.080577     -0.888497     -0.134596
