18
Extracted from Q-Chem output
C       1.118544      0.475847     -1.114307
C       1.579498     -1.132032     -0.106208
C       1.434286     -0.666827      1.275942
N       0.479432      0.067999      0.486548
C      -0.913142     -0.355965      0.630235
C      -1.852529      0.406137     -0.282973
O      -1.839641      1.793042     -0.024385
H       0.320236      1.209360     -1.276007
H       1.166815     -0.132172     -2.017602
H       2.053561      1.000712     -0.966786
H       0.890631     -1.959678     -0.312142
H       2.221647     -0.071759      1.735388
H       0.934786     -1.332858      1.973962
H      -1.034892     -1.434840      0.468726
H      -1.198060     -0.131710      1.662950
H      -1.626078      0.197370     -1.336000
H      -2.871378      0.060768     -0.097250
H      -0.932551      2.057313      0.150990
