19
Extracted from Q-Chem output
C      -1.898132     -0.794657      1.200891
C      -1.140955     -0.478091     -0.065059
C      -0.623948      0.779069     -0.300237
C       1.791751      0.726778      0.068151
C       2.162250     -0.543618      0.405283
C      -0.441120      1.246775     -1.668737
O      -0.229863      2.389995     -1.998147
H      -1.968808     -1.868423      1.375796
H      -1.418547     -0.336790      2.067306
H      -2.914121     -0.398062      1.135581
H       0.028314     -1.376608      0.183107
H      -1.421525     -1.058668     -0.943124
H      -0.664362      1.539983      0.469811
H       1.601312      1.470398      0.828917
H       1.938794      1.104854     -0.933455
H       2.661417     -1.174300     -0.322416
H       0.883084     -1.354453      0.334213
H       2.328985     -0.803780      1.445274
H      -0.521963      0.447148     -2.439345
