17
Extracted from Q-Chem output
C       1.923841     -0.573452     -0.253051
C       0.828908      0.177936      0.481997
C       0.606689      1.669158      0.073796
C      -0.779393      1.234540     -0.340944
O      -2.763337     -1.027713     -0.440208
C      -1.435752     -1.265668     -0.028868
C      -0.594600     -0.039309      0.003894
H       1.886104     -1.643718     -0.035505
H       2.912115     -0.210273      0.037169
H       1.818278     -0.447572     -1.333828
H       0.943302      0.052991      1.563771
H       0.661272      2.386815      0.895449
H       1.256365      2.009830     -0.736162
H      -1.616128      1.770428     -0.772347
H      -1.019273     -1.983150     -0.742036
H      -1.404239     -1.753383      0.956920
H      -3.131800     -0.344882      0.124311
