17
Extracted from Q-Chem output
C       1.892678     -0.722749      0.257780
C       0.758194      0.198480      0.650542
C       0.236084      1.248320     -0.395399
C      -1.180171      0.924134      0.115081
O      -2.221871      0.045212     -0.588039
C      -1.133330     -0.992657     -0.599668
C      -0.697390     -0.366416      0.740835
H       2.046692     -1.484537      1.024859
H       2.829976     -0.174700      0.135068
H       1.685090     -1.237966     -0.684138
H       1.011963      0.710972      1.581844
H       0.518368      2.290880     -0.241274
H       0.452066      0.995731     -1.431927
H      -1.717132      1.716839      0.633451
H      -0.544229     -0.821976     -1.502819
H      -1.568598     -1.990180     -0.615548
H      -2.283368     -0.345091      0.534396
