16
Extracted from Q-Chem output
C       2.375280      0.010858     -0.132110
C       1.105742     -0.506944     -0.806157
C      -0.114513     -0.334987      0.042760
O      -0.028571     -1.082587      1.181278
C      -2.382066      0.644550      0.564057
C      -1.147803      0.447471     -0.263729
H       3.244779     -0.148367     -0.771875
H       2.550047     -0.502428      0.813781
H       2.295267      1.080375      0.072851
H       1.219945     -1.572397     -1.029165
H       0.943827      0.005638     -1.755464
H      -0.796962     -0.917902      1.732429
H      -2.545571     -0.156807      1.291008
H      -2.357030      1.586279      1.120252
H      -3.272718      0.668003     -0.066550
H      -1.083122      0.998410     -1.193888
