16
Extracted from Q-Chem output
C       1.938290      0.290507      0.177980
C       0.792885     -0.204474     -0.695754
C      -0.487095     -0.477415      0.075370
O      -0.217801     -1.359215      1.136725
C      -1.259670      0.805476      0.524632
C      -1.779207     -0.635859     -0.552471
H       2.842417      0.434296     -0.415874
H       2.157817     -0.428635      0.966679
H       1.695756      1.244947      0.651714
H       1.083473     -1.138252     -1.184036
H       0.576510      0.517386     -1.487674
H      -1.002092     -1.909431      1.223815
H      -1.346348      0.806989      1.605454
H      -0.870944      1.717278      0.084661
H      -2.347351      0.660482      0.202496
H      -1.770108     -0.104915     -1.514241
