10
Extracted from Q-Chem output
O      -0.349524      1.250723     -0.665530
C      -1.017886      0.048395     -0.399690
N      -0.512206     -0.685608      0.583362
C       0.452898     -0.461990      1.451259
C       0.698083      1.153443     -1.421641
N       1.628410      1.114468     -2.098351
H      -1.613795     -0.389953     -1.180724
H      -0.995918     -1.569075      0.685661
H       1.006269      0.460155      1.403744
H       0.631516     -1.206013      2.206962
