10
Extracted from Q-Chem output
O      -0.440369      1.054067     -0.905140
C      -1.180676      0.051312     -0.434168
N      -0.622263     -0.664137      0.500946
C       0.609183     -0.312397      0.988668
C       0.925960      0.812802     -0.977670
N       1.939703      1.063703     -1.477470
H      -2.086414     -0.224296     -0.947380
H      -1.026725     -1.565984      0.713076
H       0.702416      0.699143      1.354559
H       1.133093     -1.089423      1.523360
