15
Extracted from Q-Chem output
C       1.888861      0.186984      0.208752
C       0.412419      0.118267     -0.025502
C      -0.723972      0.743424      0.757201
C      -1.653301     -0.273669      0.071583
O      -1.782078      0.163424     -1.287274
C      -0.542356     -0.369843     -1.635052
C      -0.402271     -1.104612     -0.304112
H       2.143042     -0.274632      1.166522
H       2.424900     -0.353691     -0.573693
H       2.245664      1.218119      0.219735
H      -0.948773      1.805063      0.638890
H      -0.624621      0.487457      1.813903
H      -2.583961     -0.604408      0.527002
H       0.333156      0.527114     -1.340469
H      -0.137720     -2.142456     -0.152886
