14
Extracted from Q-Chem output
C       1.873348      0.615247     -0.332168
C       0.994899     -0.475330      0.177516
O       0.291330     -0.079883      1.391594
C      -0.767781     -0.191138      0.558870
C      -1.455252      0.939714      0.039258
O      -2.616965      0.743312     -0.688326
H       1.278422      1.480873     -0.660323
H       2.448885      0.261042     -1.188379
H       2.567115      0.976010      0.433583
H       1.399589     -1.481834      0.253129
H      -1.276948     -1.154192      0.498354
H      -0.363470      0.113060     -0.601422
H      -1.091748      1.943428      0.212528
H      -3.360901      0.687840     -0.083559
