15
Extracted from Q-Chem output
O       0.034691     -2.185889      1.290242
C       0.340146     -1.277558      0.552998
C      -0.639924     -0.780865     -0.500148
C      -1.516524      0.303133      0.061024
C      -1.654230      1.510714     -0.461848
C       2.082696      0.431712      0.019469
C       1.664903     -0.621938      0.707715
H      -0.127229     -0.429557     -1.396464
H      -1.253398     -1.643346     -0.768810
H      -2.065367      0.039209      0.961149
H       1.471836      0.908240     -0.737408
H      -1.124259      1.807161     -1.361566
H      -2.309492      2.247453     -0.014186
H       3.057747      0.867582      0.200357
H       2.286078     -1.073806      1.474001
