15
Extracted from Q-Chem output
O       0.741825     -2.588203      0.208582
C       0.436586     -1.417728      0.156956
C      -0.997072     -1.040981     -0.214868
C      -1.341900      0.404021      0.034254
C      -0.541373      1.368473     -0.607250
C       1.378911      0.932475      0.330400
C       1.499213     -0.396785      0.441303
H      -1.131945     -1.326555     -1.267476
H      -1.638176     -1.708632      0.360476
H      -2.140365      0.705523      0.694888
H      -0.150206      0.875044      0.554475
H      -0.022661      1.146460     -1.532530
H      -0.707286      2.420341     -0.411496
H       2.242903      1.571039      0.512208
H       2.426250     -0.884767      0.748416
