15
Extracted from Q-Chem output
C      -2.629753     -0.540453     -0.231323
N      -1.435448      0.149431      0.190925
C      -0.326408     -0.236291     -0.261970
C       0.945808      0.445294      0.100038
C       2.209832     -0.343463     -0.126336
C       0.878888      1.584012      0.991218
N       0.990022      1.946396     -0.192992
H      -3.298084      0.170795     -0.720886
H      -3.153964     -0.919765      0.648168
H      -2.433745     -1.374036     -0.919107
H      -0.244243     -1.094130     -0.946530
H       3.084781      0.240798      0.156056
H       2.311993     -0.618296     -1.179453
H       2.208779     -1.264447      0.462177
H       0.781390      2.011877      1.979177
