15
Extracted from Q-Chem output
C      -2.608943     -0.475375     -0.514449
N      -1.377909      0.268718     -0.396302
C      -0.318129     -0.368341     -0.085684
C       0.903678      0.222281      0.342909
C       2.216148     -0.303891     -0.127545
C       0.897114      1.500014      1.037140
N      -0.066538      2.205898      0.711816
H      -3.051489     -0.289868     -1.495270
H      -3.313963     -0.097193      0.229634
H      -2.494501     -1.557474     -0.365481
H      -0.296839     -1.467965     -0.090338
H       2.528106      0.164395     -1.066752
H       2.145903     -1.376323     -0.317244
H       3.003033     -0.115139      0.608866
H       1.801813      1.835029      1.568392
