9
Extracted from Q-Chem output
O       2.237237     -0.081680     -0.028726
C       0.664869     -0.275560      0.375236
N       1.398360     -1.278679      0.537682
O      -1.941331     -1.147075     -0.169079
C      -1.673383      0.029116     -0.068405
C      -0.357481      0.572644      0.212369
H       2.291403     -0.263634     -0.980701
H      -2.456121      0.800781     -0.201462
H      -0.184910      1.632908      0.323993
