11
smiles: [C+:2]1=[C:5]([O-:6])[N:4]([H:11])[C:3]1([H:9])[H:10].[O:1]([H:7])[H:8]
O        0.54710900       1.71540200      -0.25305900
C        0.12327700      -0.66191400       0.06384900
C       -1.28456800      -0.40272500      -0.18160100
N       -0.75041300      -1.77274600      -0.19132500
C        1.36099500      -0.30484900       0.02113300
O        2.47035600       0.04141500       0.07793700
H        1.42935100       1.41677600      -0.47750900
H        0.66974700       2.40101200       0.40467000
H       -1.89788100      -0.09199900       0.65841800
H       -1.59320300      -0.03368300      -1.15296000
H       -0.97218100      -2.23397900       0.68719400
