11
Extracted from Q-Chem output
O       0.542489      1.800163     -0.490878
C       0.005902      0.550912      0.552657
C      -1.162461     -0.251376     -0.032984
N      -0.245491     -1.392988     -0.032144
C       0.866242     -0.633591      0.223368
O       2.051650     -0.833178      0.140896
H       1.468889      1.554659     -0.646031
H       0.430955      1.925257      0.555947
H      -2.028260     -0.347274      0.623682
H      -1.472595      0.061038     -1.032348
H      -0.380096     -2.385056     -0.138526
