17
Extracted from Q-Chem output
C       2.121634      0.103773      0.298704
C       0.663959     -0.091016      0.113235
C      -0.110901     -1.124206      0.554201
C      -1.435232     -0.874238      0.312507
C      -1.628756      0.514580     -0.191627
C      -0.200712      0.861413     -0.700425
O       0.160414      2.214417     -0.590380
H       2.371931      1.160090      0.410423
H       2.666826     -0.253335     -0.583315
H       2.488105     -0.451900      1.161646
H       0.032018     -2.329828      0.579859
H      -2.202854     -1.634728      0.399138
H      -0.572407     -3.085232     -0.074008
H      -2.412377      0.574654     -0.949189
H      -1.906171      1.207384      0.610296
H      -0.133107      0.638198     -1.772398
H       0.120642      2.470270      0.335139
