14
Extracted from Q-Chem output
O      -1.602621      0.894570     -0.312325
C      -1.407589     -0.470369     -0.620180
C       0.692384     -0.714338      0.816517
C       0.054297     -0.912672     -0.506595
C       1.446657      1.492794      0.457933
O       1.340072      0.373524      1.106265
H      -1.448220      1.018418      0.627322
H      -2.030753     -1.104321      0.022551
H      -1.751352     -0.600917     -1.648480
H       0.876043     -1.502277      1.530466
H       0.097574     -1.979097     -0.749162
H       0.648146     -0.379216     -1.265434
H       0.835479      1.682492     -0.410439
H       2.088545      2.216980      0.929214
