11
Extracted from Q-Chem output
O       2.207057      0.670214      0.987942
C       1.152386      0.316777      0.513869
C       0.569744     -1.055867      0.455407
C      -0.608111     -1.007640     -0.152691
C      -0.931244      0.399720     -0.560346
N       0.224203      1.118177     -0.096099
H      -1.062406      0.478565     -1.645436
H       1.076632     -1.916401      0.864369
H      -1.277745     -1.833319     -0.349617
H      -1.856034      0.748093     -0.087026
H       0.366502      2.105328     -0.200945
