11
Extracted from Q-Chem output
O       1.759722      0.478497     -0.418583
C       0.955666      0.254518      0.560013
C       0.397748     -1.063335      0.722520
C      -0.761224     -0.935572      0.024589
C      -0.893511      0.435589     -0.406797
N      -0.083668      1.178272      0.516614
H       0.651177      0.443710     -1.189095
H       0.951317     -1.959120      0.948615
H      -1.423592     -1.730488     -0.287726
H      -1.843770      0.848028     -0.731353
H       0.256069      2.051856      0.138080
