16
smiles: [C:1]([C@@:2]1([H:10])[C:3]([H:11])([H:12])[C:4]1)([H:7])([H:8])[H:9].[C:5]([O:6][H:16])([H:13])([H:14])[H:15]
C        2.40119700      -0.48767500       0.80617300
C        1.19090400      -0.13124200      -0.02784800
C        0.14278100      -1.11164300      -0.39997000
C       -0.13246800      -0.08599400       0.64585600
C       -2.43973100       0.84420300      -0.09261500
O       -1.06451200       1.15668600      -0.14993000
H        3.20409800      -0.86754700       0.17182400
H        2.76598000       0.38461500       1.35041200
H        2.15949500      -1.26128700       1.53662800
H        1.34019500       0.69090700      -0.72452900
H       -0.38959700      -1.01091200      -1.33987100
H        0.17101300      -2.13286200      -0.02795400
H       -2.61763600       0.05027000      -0.81704900
H       -3.07108600       1.69911400      -0.36068900
H       -2.74210500       0.48001300       0.89590000
H       -0.88012300       1.85166800       0.48237600
