16
Extracted from Q-Chem output
C       2.006835     -0.436800      1.060454
C       1.113536     -0.088442     -0.101038
C       0.219562     -1.113955     -0.746081
C      -0.366925     -0.025476      0.093384
C      -2.249707      0.731841      0.397337
O      -1.015845      1.032426     -0.849953
H       2.942271     -0.889185      0.721630
H       2.250601      0.449196      1.652619
H       1.508301     -1.148109      1.721192
H       1.529826      0.636644     -0.799450
H       0.101143     -1.055230     -1.822549
H       0.192349     -2.121564     -0.344826
H      -2.641435     -0.269712      0.304415
H      -2.901516      1.468138     -0.085185
H      -2.012650      0.988249      1.418881
H      -0.638851      1.882479     -0.592911
