17
Extracted from Q-Chem output
C       2.144821      0.118609     -0.094478
O       1.065620     -0.035904      0.802364
C      -0.215701      0.000286      0.282694
C      -0.498342      0.765580     -0.875682
C      -1.191399     -0.108322      1.329736
C      -0.621688     -1.591406     -0.108198
O      -1.547737     -2.011052     -0.718316
H       2.069250     -0.560061     -0.951255
H       3.042739     -0.123636      0.470403
H       2.220899      1.146780     -0.457876
H       0.284402      1.023545     -1.576208
H      -1.096130      1.999803      0.354109
H      -1.485194      0.644788     -1.304461
H      -1.340103      1.741269      1.105732
H      -2.229968     -0.216629      1.053564
H      -0.871689     -0.494211      2.289532
H       0.256899     -2.180801      0.214159
