14
Extracted from Q-Chem output
C      -0.984684     -0.739933      0.044886
C      -1.070761      0.826292     -0.283145
C       0.127363      1.200883      0.497418
C       1.265918      0.703733     -0.027943
C       1.435731     -0.680822      0.501869
O       0.282819     -1.322389     -0.136800
H      -1.648929     -1.286368     -0.625810
H      -1.333586     -0.877040      1.076277
H      -2.035287      1.215386      0.049888
H      -0.950887      0.972112     -1.357085
H      -0.003705      1.097389      1.576190
H       1.380390      0.753269     -1.109834
H       2.291724     -1.247933      0.140005
H       1.362523     -0.747192      1.591265
