12
smiles: [C:1]1([H:7])([H:8])[O:2][C:3]12[C-:4]([H:10])[O+:5]=[C:6]2[H:11].[H:9][H:12]
C        1.52006800       0.02454900      -0.12202000
O        1.52548300      -0.28537900       1.25239000
C        0.28014000      -0.20366900       0.63788000
C       -0.83561600       0.70308900       0.93412200
O       -1.71766300      -0.19874100       0.52915500
C       -0.80347600      -1.21488300       0.31997000
H        1.86176000      -0.76723700      -0.78162100
H        1.80540800       1.03865300      -0.37995400
H       -0.89809800       0.97958800      -1.75242300
H       -1.08568200       1.43752600       1.68701100
H       -0.93157600      -1.73478700      -0.62820700
H       -0.80479000       0.50519700      -2.31862000
