12
Extracted from Q-Chem output
C       1.645382      0.069672     -0.131641
O       1.304136     -0.404764      1.163021
C       0.261657     -0.087347      0.273029
C      -0.887283      0.845434      0.594178
O      -1.738304     -0.232107      0.459926
C      -0.845991     -1.006099     -0.122618
H       2.087797     -0.667124     -0.795396
H       2.070013      1.067678     -0.166189
H      -0.963342      0.965514     -1.238028
H      -1.036557      1.475806      1.460855
H      -1.054241     -2.001362     -0.477319
H      -0.927312      0.258609     -1.642133
