15
Extracted from Q-Chem output
C      -2.341573     -0.325764      0.132836
C      -0.883011     -0.054699     -0.113035
C      -0.293700      1.243417     -0.112494
N       1.018091      1.053820     -0.048810
C       1.336236     -0.285400      0.044226
N       2.710844     -0.610250      0.085037
C       0.208383     -1.087845      0.077486
H      -2.575090     -1.351617     -0.149508
H      -2.570836     -0.217374      1.193780
H      -2.988301      0.351631     -0.428754
H      -0.733103      2.228331     -0.159376
H       1.713228      1.779036     -0.149305
H       3.060527     -0.636888      1.034688
H       2.836754     -1.533187     -0.306221
H      -0.529676     -0.509795     -1.128843
