8
Extracted from Q-Chem output
C      -1.016866     -0.535752     -0.188473
N      -0.518853      0.567182      0.569968
N       0.065409      1.575707     -0.363446
N       1.152158      1.011209     -0.521038
C       0.768258     -0.151270      0.314389
N       0.052131     -1.218720     -0.376327
H      -2.037343     -0.712629     -0.507448
H       1.454260     -0.420430      1.112582
