8
Extracted from Q-Chem output
C      -0.945391     -0.482039     -0.175893
N      -0.766701      0.754608      0.421247
N       0.226626      1.561321     -0.211732
N       1.255758      0.906276     -0.504146
C       0.865017     -0.268272      0.140191
N       0.117925     -1.146364     -0.558179
H      -1.955038     -0.871315     -0.280064
H       1.162944     -0.421388      1.177178
