18
smiles: [C:1](=[C:2]([H:11])[H:12])([H:8])[H:10].[C:3]([C:4]([H:13])([H:14])[H:15])(=[C:5]([H:16])[H:17])[C:6]#[N:7].[H:9][H:18]
C        2.28682700       0.04226500       0.37568100
C        2.01463000      -1.13090200       0.92076600
C       -1.32056500       0.65075200       0.20573700
C       -1.70907300      -0.75114700      -0.16578300
C       -1.32141300       1.68719600      -0.62560000
C       -0.92269400       0.85228800       1.57605700
N       -0.61017100       0.98083000       2.67392100
H        1.97919900       0.97119600       0.84214400
H        0.72211800      -0.49144600      -2.16005900
H        2.82682900       0.12201100      -0.56081600
H        1.47445400      -1.21047400       1.85720100
H        2.32215600      -2.05979800       0.45443700
H       -0.88528800      -1.44199000       0.02211600
H       -2.55788100      -1.08581300       0.43346100
H       -1.97980100      -0.80435200      -1.21936400
H       -1.61578000       1.56225800      -1.66045400
H       -1.03042400       2.67658700      -0.29869600
H        0.57658000      -0.63344300      -2.87639500
