18
Extracted from Q-Chem output
C       2.195611     -0.307921     -0.182926
C       1.257210     -0.686975      0.731132
C      -0.950519      0.320832      0.145278
C      -1.690897     -0.995922      0.104347
C      -0.732091      1.065931     -0.994506
C      -0.961696      1.016030      1.398889
N      -0.985064      1.559820      2.413217
H       2.904848      0.476954      0.056335
H       1.449755      0.571361     -1.178707
H       2.501101     -0.995058     -0.965018
H       1.172986     -0.182258      1.683000
H       0.765579     -1.645987      0.643091
H      -1.474997     -1.613048      0.976002
H      -2.770550     -0.824975      0.083714
H      -1.420590     -1.556763     -0.791354
H      -1.110587      0.687067     -1.938537
H      -0.645547      2.143396     -0.921469
H       0.690389      0.922429     -1.418485
