8
Extracted from Q-Chem output
C       1.840491      0.429768     -0.235085
C       0.696168     -0.085301     -0.245284
C      -0.602419     -0.550544     -0.491632
C      -1.663112      0.344041     -0.748888
N      -2.531670      1.070862     -0.963161
H       2.585309      0.872334      0.397870
H       0.497541     -0.493728      0.813493
H      -0.819515     -1.600948     -0.364288
