13
Extracted from Q-Chem output
C       0.386283      0.496578      1.289276
O       0.615060     -0.880367      0.985807
C       0.439152     -0.998241     -0.425473
C      -0.998322     -0.664968     -0.798731
O      -0.936352      0.796392     -0.755951
C       0.288957      1.142339     -0.078207
C       0.990786      0.261307     -1.067988
H       1.224465      0.891037      1.869137
H      -0.536569      0.619592      1.864344
H       0.824738     -1.957105     -0.756595
H      -1.726387     -1.035504     -0.073691
H       0.420246      2.217364     -0.142743
H      -1.275407     -0.963345     -1.807951
