15
Extracted from Q-Chem output
C      -1.866810     -0.971699      0.222509
C      -0.734927     -0.056406     -0.147503
C      -0.650580      1.342954      0.333353
N       0.201358      0.300447      0.897023
C       1.584145      0.341667      0.592488
C       2.162550     -0.358642     -0.352120
N       2.721476     -1.127732     -1.124973
H      -2.234059     -0.735769      1.221772
H      -1.539029     -2.012865      0.217394
H      -2.691456     -0.868365     -0.485817
H      -0.301253     -0.230859     -1.130766
H      -0.180781      2.072263     -0.318681
H      -1.409201      1.731066      1.003889
H       2.868353     -0.749840     -2.059162
H       2.199902      0.966662      1.226709
