13
Extracted from Q-Chem output
C       2.514586      0.472069      0.713545
C       1.385389      0.102060      0.567004
C       0.009046     -0.335927      0.382406
C      -1.047739      0.786416      0.459529
C      -2.128902      0.425287     -0.522654
O      -1.651980     -0.507414     -1.282933
C      -0.269672     -0.907549     -1.003500
H       3.518143      0.800388      0.848354
H      -0.648222      1.747605      0.113479
H      -1.450967      0.955638      1.456865
H      -0.220779     -1.091570      1.137644
H      -0.226967     -1.992295     -1.066619
H       0.359498     -0.466414     -1.776722
