15
smiles: [C:1]1([H:8])([H:9])[O:2][C@:3]2([H:10])[C:4]([H:11])([H:12])[C@@:5]1([H:13])[C-:6]=[O+:7]2.[H:14][H:15]
C       -1.56799200       0.65986400       0.09472400
O       -1.13396400       1.01670800      -1.22818100
C        0.14612800       0.49467900      -1.34134200
C        0.09197200      -0.84496000      -0.64894500
C       -0.37898500      -0.16122400       0.64259500
C        0.67887100       0.92025900       0.83429500
O        0.99248800       1.25391000      -0.38974900
H       -2.48478800       0.07085500       0.03195200
H       -1.75616300       1.56840000       0.67193400
H        0.53558400       0.62385600      -2.34503500
H        1.06033500      -1.33381600      -0.56141300
H       -0.64007700      -1.51292200      -1.10029400
H       -0.59602800      -0.76163700       1.51951100
H        2.45693200      -0.64708800       2.05342800
H        2.77408900      -1.32075700       2.05313500
