14
Extracted from Q-Chem output
C       2.461460      0.003502      0.287228
C       1.066093      0.169350      0.312054
C       0.051181     -0.775295     -0.053231
C      -1.171089     -0.016771     -0.140961
N      -2.394071     -0.560804     -0.518127
C      -0.862957      1.262997      0.134373
O       0.506488      1.387064      0.394949
H       1.280353     -0.267977     -0.847907
H       2.872605     -0.989512      0.379552
H       3.095571      0.873155      0.337685
H       0.180071     -1.844887     -0.089603
H      -2.527133     -1.510655     -0.211303
H      -3.189883      0.008507     -0.281178
H      -1.426988      2.177720      0.157557
