11
Extracted from Q-Chem output
C      -1.765858     -0.426106      0.670429
C      -0.555219     -0.149543      0.201011
C       0.178602      1.123245      0.220098
N       1.320604      1.035627     -0.322192
C       1.464028     -0.326829     -0.764512
O       0.269389     -1.031922     -0.414389
H      -2.193859     -1.415163      0.589839
H      -2.340351      0.355197      1.146182
H       1.599806     -0.364194     -1.848916
H      -0.203007      2.044063      0.646124
H       2.319291     -0.799983     -0.274688
