11
Extracted from Q-Chem output
C      -1.350434     -0.423415      0.088583
C      -0.233697     -0.059157      0.850428
C       0.364452      1.205146      0.549135
N       1.274423      0.989870     -0.363620
C       1.251720     -0.370544     -0.552411
O       0.740555     -0.996876      0.561464
H      -1.617613     -1.472568      0.023899
H      -2.163677      0.281614     -0.047649
H      -0.268758     -0.434141     -1.033649
H       0.027151      2.191200      0.833692
H       2.069300     -0.866737     -1.060887
