21
Extracted from Q-Chem output
C       2.686674     -0.199001      0.088085
C       0.748981     -0.526552     -1.010088
C      -0.041263     -1.393398     -0.070821
C      -1.228466     -0.508078     -0.547944
C      -2.390885     -0.285833      0.401254
C      -0.198065      0.645772     -0.802084
C      -0.050046      1.600753      0.373215
H       2.207624      0.424919      0.831344
H       2.941216     -1.177368      0.487543
H       3.554268      0.300529     -0.342038
H       2.064200     -0.435646     -0.938406
H      -0.055217     -2.467372     -0.261465
H       0.107480     -1.217080      1.000493
H      -1.603827     -0.874435     -1.503498
H      -2.060196      0.059257      1.382286
H      -3.089429      0.453824      0.002600
H      -2.942260     -1.217399      0.546288
H      -0.353262      1.232954     -1.711127
H       0.794328      2.273494      0.211946
H       0.104447      1.083651      1.322450
H      -0.945702      2.217753      0.477462
