8
Extracted from Q-Chem output
N      -0.848835     -0.055135      0.217524
C       0.415536      0.626953      0.059874
C       1.299006     -0.443866     -0.483372
N       0.491901     -1.536358     -0.567312
N      -0.743552     -1.268427     -0.152578
H      -1.739138      0.275104      0.554660
H       0.335981      1.463720     -0.639119
H       0.792658      1.003185      1.014445
