11
smiles: [C-:5]#[O+:6].[N:1]([C:2]([O:3][H:11])=[C:4]([H:9])[H:10])([H:7])[H:8]
N       -2.13407600       0.11229100       0.16992200
C       -0.76364600      -0.00589500       0.07170100
O       -0.34671100       0.52347300      -1.10545400
C        0.05373200      -0.51640100       0.99796500
C        2.86009600       0.57687800      -1.47806400
O        3.97189500       0.67102800      -1.60902900
H       -2.56134300      -0.46665900       0.87097300
H       -2.61320200       0.09658500      -0.71511200
H       -0.33968100      -0.93591600       1.91163300
H        1.12627400      -0.49380100       0.86618300
H        0.60728900       0.44037500      -1.15907700
