9
Extracted from Q-Chem output
N      -1.288612      0.986782      1.684193
C      -0.800514      0.583678      0.594228
N       0.343719     -0.216194      0.578127
C       0.766172     -0.576065     -0.556527
O       1.843093     -1.336120     -0.704129
H      -2.113832      1.553144      1.508681
H      -1.230917      0.828710     -0.389712
H       2.185771     -1.524587      0.180429
H       0.318840     -0.318055     -1.519871
