12
Extracted from Q-Chem output
N       2.690488      0.422823     -0.907385
C       1.709205      0.173982     -0.368941
C       0.456922     -0.159161      0.325752
C      -0.398669      1.077501      0.536381
C      -1.433622     -1.327448     -0.896656
N      -0.226854     -1.245780     -0.423709
H       0.741243     -0.571239      1.298743
H      -1.288884      0.829827      1.113347
H       0.178959      1.815820      1.091016
H      -1.954117     -0.380764     -0.670063
H      -0.700795      1.517763     -0.413300
H       0.378615     -2.045429     -0.566321
