11
Extracted from Q-Chem output
C      -1.611646     -0.369888      0.200327
N      -0.326097      0.209552      0.566361
N       0.742299      0.113418     -0.503345
C       1.990358     -0.404125     -0.098851
O       2.126252     -1.248686      0.728507
C       0.165977      1.303437     -0.081241
O       0.141646      2.472534     -0.224061
H      -1.815371     -0.269467     -0.868775
H      -1.608771     -1.420314      0.482592
H      -2.378223      0.151857      0.772646
H       2.808520      0.027298     -0.697134
