13
Extracted from Q-Chem output
C      -1.345331      0.011922      0.398611
C      -0.266233     -0.996119     -0.758333
C       0.258565      0.923577     -0.011959
C       1.486305      0.074607      0.175797
O       2.449259      0.324373      0.855947
N       1.121269     -1.074570     -0.444608
H      -2.183364     -0.400453     -0.155817
H      -1.241367     -0.496641      1.352245
H      -1.676636      1.040919      0.592082
H      -0.412303     -0.488048     -1.717195
H       0.199141      1.427897     -0.972698
H       0.154015      1.630469      0.803200
H       1.507824     -1.951678     -0.130500
