14
smiles: [C-:3]#[O+:4].[C:1](/[C:2](=[C:5](/[O:6][H:12])[N:7]([H:13])[H:14])[H:11])([H:8])([H:9])[H:10]
C       -0.69722800      -1.74499300      -0.13808900
C       -0.46494100      -0.27897800      -0.35460900
C       -1.49292600       2.78769800       1.04759900
O       -2.14788900       2.84640800       1.95845900
C        0.74650900       0.28199600      -0.42359700
O        0.96503300       1.61247000      -0.60194800
N        1.95614600      -0.38257900      -0.37720500
H        0.01348600      -2.17528100       0.57565700
H       -1.69112900      -1.91997900       0.27569000
H       -0.62580300      -2.32988900      -1.06134200
H       -1.32654700       0.36110700      -0.50639300
H        0.11788200       2.06226800      -0.60851300
H        1.91337200      -1.32079700      -0.01870600
H        2.70687100       0.16269600       0.01388600
