14
Extracted from Q-Chem output
C       1.740523     -0.219505      0.044154
C       1.102347      0.304704     -1.040768
N      -1.089531      0.131682     -0.813876
C      -1.450328     -0.609355      0.184287
C      -1.499379      0.817877      0.439891
H       2.217999     -1.191043     -0.019537
H       2.086112      0.425374      0.843936
H       0.566640     -0.850747      0.883524
H       1.012236     -0.257232     -1.958814
H       0.911694      1.365458     -1.116269
H      -0.260625     -1.044481      1.025852
H      -1.991973     -1.542488      0.248765
H      -2.421476      1.389600      0.399995
H      -0.711648      1.241498      1.064163
