14
smiles: [C:1]([C:3](=[C:2]([H:11])[H:12])[C:6]#[N:7])([H:8])([H:9])[H:10].[C:4](=[O:5])([H:13])[H:14]
C       -2.38411300       0.69835700      -0.08453200
C       -0.76210700      -1.14721300       0.43391300
C       -1.01550200       0.08938700       0.01951100
C        3.17738100      -0.35487400      -0.04942400
O        2.68108400      -1.26204200       0.55110200
C        0.08337100       0.93662400      -0.36943300
N        0.93805400       1.63581000      -0.68598700
H       -2.45297700       1.59712000       0.53088400
H       -3.14182800      -0.01227300       0.24238900
H       -2.59716100       0.99062000      -1.11448100
H       -1.56963000      -1.80526900       0.73042500
H        0.24756000      -1.53255700       0.48563000
H        3.16689800      -0.30953800      -1.15553800
H        3.67363100       0.48876600       0.46770000
