14
Extracted from Q-Chem output
C      -1.155903      0.576618      0.380617
C      -0.587025     -1.223342     -0.042760
C       0.185141     -0.119299     -0.344983
C       1.577976      0.187005      0.594537
O       2.515899     -0.479572      0.074201
C       0.307023      0.260911     -1.733264
N       0.381715      0.616516     -2.821564
H      -0.818302      0.855253      1.376180
H      -2.142804      0.102517      0.437030
H      -1.279198      1.416101     -0.300793
H      -0.588601     -1.583793      0.980893
H      -1.147647     -1.787665     -0.782923
H       1.623912      1.304205      0.580173
H       1.172530     -0.125546      1.598685
