13
smiles: [H:8][H:13].[O:1]=[C:2]=[N:3][C:4]([C@@:5]1([H:11])[C:6]([H:12])=[N:7]1)([H:9])[H:10]
O        2.09327500       2.31662300      -0.02515800
C        1.67745700       1.22855800      -0.01784700
N        1.31790600       0.09251300       0.11534000
C        0.55612600      -0.87174900      -0.62475800
C       -0.87745000      -0.44769300      -0.86976300
C       -1.50129400       0.66132000      -0.19309900
N       -1.14523300       0.95936100      -1.35085500
H        0.05950700      -0.37891600       2.49528000
H        0.55571500      -1.80550200      -0.05980900
H        1.04310700      -1.07258800      -1.58404400
H       -1.48950200      -1.22612800      -1.31987300
H       -1.97448400       1.12474200       0.66114600
H       -0.45592700      -0.56096200       3.00080700
