19
smiles: [C:1]([C:2]([H:11])([H:12])[H:19])([H:8])([H:9])[H:10].[C:3](=[O:4])([C@@:5]([C:6]([H:16])([H:17])[H:18])([O:7][H:14])[H:15])[H:13]
C        1.93918000       0.66504300       1.46835500
C        0.70204300       0.69213800       2.35561400
C        0.24898300      -1.07657000      -1.05503800
O        0.38031900      -2.08205600      -0.41000400
C       -0.97439300      -0.20056900      -0.94209200
C       -1.61345100       0.01347800      -2.30825500
O       -1.88901000      -0.74804300      -0.03941200
H        2.21598600      -0.35751300       1.20412100
H        1.77363900       1.21161100       0.53784800
H        2.79722600       1.11937500       1.96763200
H        0.86772100       0.14600500       3.28635400
H        0.42493200       1.71472400       2.61940500
H        1.02810000      -0.74387800      -1.76750900
H       -1.47071500      -1.53182300       0.34138000
H       -0.60953100       0.77074000      -0.56794300
H       -1.95169900      -0.93804300      -2.72139000
H       -2.47850100       0.66692300      -2.20251700
H       -0.91280200       0.47835600      -3.00524900
H       -0.15584800       0.23732400       1.85650700
