19
Extracted from Q-Chem output
C       1.754325     -0.135472      1.938110
C       0.735620      0.755379      1.245383
C       0.310778      0.269949     -0.835909
O       0.946612     -0.858151     -0.945612
C      -1.178248      0.092726     -0.608638
C      -1.860766     -0.326944     -1.912216
O      -1.195932     -0.865606      0.364117
H       1.261809     -0.842498      2.607239
H       2.320801     -0.716999      1.206135
H       2.473069      0.443570      2.521408
H       0.093627      1.308894      1.940217
H       1.249716      1.534515      0.678804
H       0.781728      1.101094     -1.355319
H       0.319871     -1.474905     -0.462707
H      -1.598917      1.061248     -0.289687
H      -1.434920     -1.256154     -2.293486
H      -2.914856     -0.501119     -1.700236
H      -1.783525      0.444122     -2.682616
H      -0.176457     -0.061442      0.935112
