15
Extracted from Q-Chem output
O       2.026937      0.333714     -0.857511
C       1.378507      0.642616      0.282444
C       0.019700      1.281827     -0.005387
C      -0.866932      0.082553      0.201848
O      -2.165457      0.226483      0.678693
C      -0.492702     -1.129695     -0.607731
C       0.065358     -0.928366      0.755569
H       2.911425      0.029778     -0.639281
H       1.272766     -0.219775      1.103891
H      -0.192998      2.070882      0.718167
H      -0.014991      1.703010     -1.012761
H      -2.746171      0.407863     -0.063392
H      -1.273174     -1.877859     -0.688997
H       0.153247     -1.042272     -1.478363
H      -0.092041     -1.596393      1.592737
