15
Extracted from Q-Chem output
O       2.294707      1.018390     -0.654609
C       1.477206     -0.024030     -0.700845
C       0.436260     -1.174104      0.648746
C      -0.705111     -0.895329     -0.325562
C      -1.450317      0.106962      0.572721
C      -0.145703      0.811944      0.398012
C       0.061774      0.297178     -0.995892
H       1.834486      1.865730     -0.802689
H       0.139313     -1.182808      1.698246
H       1.141513     -1.968553      0.448070
H      -1.194708     -1.691291     -0.886085
H      -2.276128      0.625120      0.077661
H      -1.745998     -0.246555      1.563367
H       0.321647      1.648793      0.906232
H      -0.244280      0.848556     -1.886646
