17
Extracted from Q-Chem output
C      -2.094948     -0.478811      0.122453
C      -1.286900     -0.761447     -1.089278
N      -0.033055      0.908420     -1.457422
C       0.153182     -0.449843     -0.918573
C       0.830354     -0.454216      0.438848
C       2.133353      0.206121      0.628929
N       0.931834      0.737871      1.272419
H      -3.118004     -0.177627     -0.104109
H      -1.666717      0.142495      0.919856
H      -2.180704     -1.499247      0.534274
H      -0.202794      0.901381     -2.452396
H      -0.772028      1.427480     -1.000087
H       0.776095     -0.998098     -1.627575
H       0.638129     -1.358799      1.009121
H       2.869525     -0.218930      1.300317
H       2.534703      0.753988     -0.217504
H       0.626161      1.550560      0.749116
