18
smiles: [C:1]([C:2]([C:3](=[O+:5][C-:6]([H:16])[H:18])[H:12])([H:10])[H:11])([H:7])([H:8])[H:9].[C:4]([H:13])([H:14])([H:15])[H:17]
C       -1.50932500      -2.31071100       0.54378100
C       -1.15770200      -0.81963800       0.54463000
C        0.20448500      -0.52482000       0.02877600
C        0.12854600       2.52367800      -1.20441800
O        1.09580600      -0.10866100       0.85738200
C        2.35127100       0.18810300       0.67918500
H       -1.43616900      -2.73003800      -0.46207600
H       -0.83044500      -2.87163700       1.18840300
H       -2.52978500      -2.47219200       0.89797000
H       -1.22696700      -0.41961500       1.55908400
H       -1.90171700      -0.27989700      -0.05282600
H        0.50707400      -0.68162800      -1.00263300
H        0.02186600       1.94175600      -2.11856000
H        0.32473600       3.56453000      -1.45778700
H       -0.78964900       2.45938600      -0.62263400
H        2.78418800       0.09850200      -0.30732500
H        0.95851500       2.13083100      -0.61919300
H        2.86336500       0.54026100       1.55603700
