18
Extracted from Q-Chem output
C      -1.454155     -2.152507      0.428410
C      -1.200426     -0.643856      0.430414
C       0.166529     -0.267177     -0.008073
C       0.131117      1.914665     -0.934307
O       1.042478      0.036633      0.890437
C       2.162340      0.702795      0.447003
H      -1.288761     -2.578376     -0.563490
H      -0.791299     -2.662969      1.128711
H      -2.484080     -2.370311      0.715778
H      -1.371721     -0.222179      1.422810
H      -1.905917     -0.155077     -0.251246
H       0.536282     -0.605351     -0.973623
H      -0.322164      1.430879     -1.799559
H       0.601408      2.833358     -1.300107
H      -0.651843      2.203596     -0.232280
H       2.701728      0.168084     -0.337629
H       1.257767      1.540819     -0.346894
H       2.778266      0.989244      1.292959
