10
Extracted from Q-Chem output
N       2.583629      0.312350      0.616986
C       1.636516     -0.137146      0.099198
C       0.834143     -1.352984     -0.399706
N      -0.264512     -1.578539      0.075285
C      -1.264552     -0.698049      0.237002
C      -0.863789      0.577796     -0.102689
N       0.360048      0.730228     -0.600257
H      -2.200617     -0.984216      0.685684
H      -1.490602      1.441562      0.083449
H       0.711925      1.675791     -0.689564
