13
Extracted from Q-Chem output
C      -1.931728     -0.001720     -0.071611
C      -0.444226      0.015159     -0.074360
C       0.427333     -0.160716     -1.083050
C       1.774699     -0.098461     -0.528314
O       2.862638     -0.093859     -1.058106
N       1.579712     -0.008512      0.859338
N       0.226952      0.246610      1.117189
H      -2.327195      0.929017      0.338297
H      -2.311422     -0.825496      0.537932
H      -2.310177     -0.127846     -1.083797
H       0.203108     -0.281432     -2.129470
H       2.224803      0.577696      1.366754
H      -0.117772     -0.277614      1.911326
