13
Extracted from Q-Chem output
C      -1.975279     -0.039767     -0.037032
C      -0.485495     -0.024238     -0.035522
C       0.396888     -0.065928     -1.087388
C       1.677577      0.024138     -0.477380
O       2.923598     -0.176319     -0.706099
N       1.532534      0.225472      0.832161
N       0.206759      0.046655      1.136071
H      -2.375881      0.959704      0.147723
H      -2.362643     -0.711161      0.730515
H      -2.345398     -0.374993     -1.004144
H       0.159548     -0.216253     -2.126230
H       2.744804     -0.124559      0.693235
H      -0.157957      0.472936      1.970872
