14
Extracted from Q-Chem output
N       1.669135     -2.834938     -0.336633
C       0.745117     -2.081044     -0.081221
O       0.894829      1.521603     -0.483980
C      -0.092803      2.181786     -1.260121
C      -0.451902      1.104062     -0.344982
C      -0.773025     -0.284229     -0.836790
C      -0.318879     -1.352430      0.124454
H       2.584094     -2.511712     -0.033270
H      -0.053354      1.980494     -2.327674
H      -0.286262      3.215290     -0.987309
H      -0.896369      1.377216      0.611273
H      -0.296566     -0.429833     -1.808225
H      -1.853505     -0.364160     -0.990690
H      -0.851894     -1.499380      1.056353
