14
Extracted from Q-Chem output
N       1.946397     -1.633193     -0.106237
C       0.889043     -0.944313     -0.234835
O       1.091854      0.551109     -0.128400
C       0.444077      1.395003     -1.092450
C      -0.727457      0.990780     -0.333144
C      -1.445637     -0.193208     -0.800593
C      -0.453101     -1.255950     -0.385948
H       2.738721     -1.076921      0.186408
H       0.507874      1.017029     -2.112012
H       0.820299      2.408587     -0.988371
H      -0.949403      1.487167      0.601334
H      -1.675188     -0.145780     -1.874893
H      -2.375649     -0.317818     -0.242940
H      -0.793211     -2.259768     -0.186736
