17
Extracted from Q-Chem output
C      -2.767059      0.767860      0.719583
C      -1.651839      0.994783     -0.209415
C      -0.506660      0.135296      0.072776
C       0.496110     -0.069605     -1.058214
C       1.700223     -0.909570     -0.661175
C       2.620890     -0.281309      0.347117
O       2.477635      0.810487      0.827330
H      -3.373879      1.655583      0.899660
H      -2.552121      0.228874      1.654412
H      -3.401451      0.109345      0.099794
H      -0.009967     -0.555025     -1.895917
H      -0.043249      0.783686      0.847035
H      -0.744394     -0.805702      0.600497
H       0.821389      0.908854     -1.415253
H       2.319687     -1.151434     -1.533109
H       1.398348     -1.883941     -0.255092
H       3.491669     -0.906718      0.637366
