15
Extracted from Q-Chem output
C      -3.006257      0.166428     -0.605887
N      -1.598563      0.341010     -0.296908
C       1.773733     -0.591189      0.744692
C       0.880482      0.342055      0.870199
C       2.672183     -0.751856     -0.447037
C      -0.038229      1.257251      1.028157
N      -1.407271      1.100968      0.651988
H      -3.156892      0.410788     -1.659116
H      -3.646299      0.781038      0.031004
H      -3.246614     -0.891715     -0.480542
H       1.878584     -1.309239      1.555013
H       2.464795      0.007088     -1.199577
H       2.531074     -1.735969     -0.899055
H       3.720732     -0.674772     -0.150480
H       0.166112      2.188990      1.540920
