15
Extracted from Q-Chem output
C      -1.935184     -0.435907     -0.634525
N      -0.904371      0.086306      0.223615
C       0.231805     -0.569268      0.677165
C       1.134227      0.353648      1.272481
C       1.623597     -0.464504     -0.394709
C       0.435897      1.586085      0.903544
N      -0.723612      1.410042      0.330949
H      -1.645961     -0.397294     -1.690267
H      -2.841630      0.150201     -0.497999
H      -2.137097     -1.471677     -0.361537
H       0.151947     -1.630283      0.875962
H       2.340881      0.346380     -0.436959
H       1.066582     -0.476503     -1.334475
H       2.152915     -1.393895     -0.222371
H       0.755118      2.594607      1.126813
