14
Extracted from Q-Chem output
C      -1.280470     -0.177978      0.672139
C      -0.442607      1.049700      0.380002
C       0.900171      0.571010     -0.115757
C       1.183967     -0.892775      0.065408
C      -0.799984     -0.809905     -0.648729
C      -0.263456      0.590084     -1.045968
H      -2.343974      0.029829      0.525345
H      -1.156058     -0.729207      1.607357
H      -0.564186      2.061182      0.748871
H       1.701807      1.298788     -0.164970
H       1.916752     -1.267773     -0.650276
H       1.367064     -1.270675      1.071483
H       0.226084     -1.567223     -0.426870
H      -0.352026      1.105546     -1.990423
