14
Extracted from Q-Chem output
C       1.320013     -0.437868     -0.275998
C       0.018465     -0.233176      0.467425
C      -0.748030      1.082543      0.272256
C      -1.899292      0.175451     -0.170329
O      -1.047703     -0.980360     -0.143782
C       2.187178     -1.511451      0.148555
H       1.228340     -0.189452     -1.341802
H       2.087600      0.273995      0.150429
H       0.156217     -0.527842      1.513233
H      -0.347440      1.708361     -0.525409
H      -0.909319      1.686123      1.162850
H      -2.315701      0.351149     -1.164662
H      -2.715909      0.086016      0.552329
H       2.943214     -1.643497     -0.648142
