12
Extracted from Q-Chem output
O       1.686469      1.414331      1.240304
C       1.943118      0.471314      0.553943
C       0.870733     -0.478994      0.009287
O       1.165247     -1.345060     -0.769438
N      -0.398069     -0.262930      0.532698
C      -1.569144     -0.613197     -0.253965
C      -1.394957      0.862471     -0.367637
H       2.964584      0.206753      0.228181
H      -2.388657     -0.995936      0.345989
H      -1.315680     -1.236497     -1.104835
H      -0.785689      1.091900     -1.251118
H      -0.698539      0.826630      0.836244
