11
Extracted from Q-Chem output
O      -0.589439      2.237218     -1.099669
C      -0.022067      1.068587     -1.226684
C      -0.439360      0.246215     -0.045046
N       0.288930     -0.992114      0.025495
C       0.727722     -1.561567      1.170675
O       1.351559     -2.592928      1.236840
H      -0.361182      2.774543     -1.865919
H       0.451777     -0.974817      2.068047
H      -0.316025      0.810045      0.886093
H      -1.522073      0.080898     -0.168938
H       0.550625     -1.437647     -0.840256
