11
Extracted from Q-Chem output
N      -1.883341     -0.352228      0.087013
C      -0.569462      0.056988      0.053239
C      -0.007709      1.282017      0.176894
O       1.399899      1.138110      0.158902
C       1.581475     -0.150069      0.014822
O       2.604565     -0.889292     -0.062237
N       0.468320     -0.853490     -0.058247
H      -2.066797     -1.177606     -0.459559
H      -2.558207      0.375137     -0.077700
H      -0.390643      2.277693      0.294770
H       1.471045     -1.681444     -0.134898
