12
Extracted from Q-Chem output
C       1.720740      0.178571     -0.141689
O       1.286197     -0.505195      1.028771
C       0.325818     -0.192481      0.027817
C      -0.836065      0.686566      0.384822
O      -1.878547     -0.242257     -0.050659
C      -0.472427     -1.271216     -0.645505
H       2.344957     -0.407492     -0.811777
H       2.042164      1.208314      0.002762
H      -0.944127      1.578968     -0.228731
H      -0.926697      0.935808      1.442736
H      -2.169941     -0.783833      0.688468
H      -0.615332     -0.988644     -1.697807
