10
Extracted from Q-Chem output
O       2.669923      0.374481     -0.107920
C       1.620073     -0.130842      0.106505
O       0.435773      0.596364     -0.698780
C      -0.756120      0.761974      0.052222
C      -0.931199     -0.660766     -0.146555
O       1.105913     -1.063679      0.721113
H      -0.597304      1.080735      1.081114
H      -1.441215      1.418879     -0.481150
H      -0.970012     -1.400385      0.634542
H      -1.135833     -0.976761     -1.161089
