16
smiles: [C:3]1([H:9])([H:10])[C:4]([H:11])([H:12])[C:5]([H:13])([H:14])[C:6]1([H:15])[H:16].[O:1]([C:2][H:8])[H:7]
O       -2.55952500      -0.10247400       1.11681000
C       -3.26649800       0.51272400       0.21361800
C        0.25252100      -0.68186300      -0.74255800
C        1.01567300      -0.83729800       0.59044700
C        1.65455800       0.54493200       0.33670100
C        0.52179500       0.83645200      -0.67058800
H       -1.71441800      -0.46506800       0.80754500
H       -2.68858700       0.46615400      -0.74552300
H       -0.78526400      -1.01443600      -0.77782700
H        0.79370500      -1.14499300      -1.56951200
H        1.68051700      -1.69422500       0.70084400
H        0.33703800      -0.81191900       1.44499900
H        1.76808000       1.21856300       1.18636500
H        2.61985700       0.45314400      -0.16456200
H       -0.30714200       1.36568700      -0.19706500
H        0.78154400       1.35344200      -1.59461000
