19
Extracted from Q-Chem output
C      -2.059124      0.055876      0.690507
C      -0.780663      0.821737      0.368730
C       0.144001      0.098194     -0.613767
C       1.027614      1.080255     -1.383516
C       1.036341     -0.946201      0.025704
C       0.931830     -1.448119      1.393079
O       1.928062     -0.504131      1.040986
H      -2.680777     -0.048458     -0.202103
H      -2.651574      0.572834      1.447546
H      -1.852715     -0.950643      1.059976
H      -0.222102      1.051723      1.281625
H      -1.052020      1.790375     -0.059991
H      -0.480880     -0.439489     -1.337883
H       0.420838      1.773334     -1.968782
H       1.641334      1.661148     -0.691947
H       1.516962     -1.607888     -0.695080
H       0.159660     -1.074161      2.057738
H       1.296763     -2.445079      1.625812
H       1.699851      0.558715     -2.068614
