19
Extracted from Q-Chem output
C      -2.220611      0.001405      0.839498
C      -1.060897      0.857366      0.345677
C      -0.226556      0.131036     -0.689484
C       1.181521      0.827231     -1.018669
C       0.669829     -0.910765     -0.296924
C       1.426756     -1.083358      0.978603
O       2.713276     -0.969479      0.649390
H      -2.869613     -0.303948      0.015374
H      -2.831170      0.550010      1.557202
H      -1.856068     -0.902874      1.331931
H      -0.429614      1.149400      1.187229
H      -1.436994      1.780862     -0.102844
H      -0.771145     -0.055937     -1.613283
H       1.324237      0.892326     -2.091464
H       1.155473      1.795962     -0.523946
H       1.010278     -1.594358     -1.070947
H       1.048327     -0.390398      1.759473
H       1.094029     -2.100019      1.321919
H       2.086388      0.313564     -0.558876
