14
Extracted from Q-Chem output
C      -1.172937     -1.171528      0.458483
C      -0.344838     -0.340566     -0.495901
C      -0.684938      1.450816      0.374505
O      -1.541244      1.488307      1.202564
C       0.904991      0.181060     -0.113993
O       0.799078      1.094965      0.804600
N       2.084768      0.026200     -0.719366
H      -0.896305     -0.988567      1.494720
H      -2.230862     -0.917199      0.363517
H      -1.052870     -2.237824      0.250912
H      -0.424486     -0.643134     -1.539623
H      -0.529063      2.145340     -0.454776
H       2.247105     -0.756719     -1.323625
H       2.838194      0.659884     -0.519400
