12
Extracted from Q-Chem output
C      -1.987185     -0.063407      0.076914
C      -0.515319      0.123555     -0.001567
C       0.275606      1.239407     -0.005081
C       1.647515      0.583280     -0.109292
C       1.458300     -0.800154     -0.275912
O       0.194867     -1.073265     -0.187790
H      -2.449150      0.917078      0.166827
H      -2.273604     -0.663721      0.943821
H      -2.380550     -0.554168     -0.816292
H       1.357110      0.770202      0.996189
H       2.574015      1.096824     -0.323333
H       2.132829     -1.626002     -0.446596
