14
Extracted from Q-Chem output
C      -2.261538      0.671002      0.024160
N      -1.632411     -0.544093      0.522745
C      -0.379630     -0.928666      0.331371
O       0.231569     -0.019046     -0.427510
N       2.397694      0.244851      0.449875
C       1.623029     -0.279301     -0.630027
H      -1.709211      1.550769      0.354384
H      -3.279585      0.724606      0.406237
H      -2.290758      0.675937     -1.066373
H      -2.190791     -1.168188      1.074701
H       2.522740     -0.422665      1.195589
H       3.286274      0.615225      0.155513
H       1.721456     -1.359526     -0.768690
H       1.886012      0.240294     -1.551271
