14
Extracted from Q-Chem output
C      -1.918294     -1.116664     -0.087834
C      -0.518675     -0.889119     -0.557599
C       0.699639      2.976791      1.356573
N       0.378668      1.866748      1.200712
C       0.365144     -0.054078     -0.038365
O      -0.031959      0.621600      1.145222
C       1.762741      0.196052     -0.482802
H      -2.204986     -0.413733      0.691583
H      -2.617644     -1.016012     -0.920303
H      -2.031971     -2.129136      0.307164
H      -0.173000     -1.474310     -1.402606
H       2.468613     -0.004514      0.325953
H       1.904157      1.230579     -0.800028
H       1.995697     -0.456285     -1.321932
