12
Extracted from Q-Chem output
C      -1.978532     -0.189895     -0.896287
N      -0.840670     -0.590518     -0.103708
C       0.338236      0.030850     -0.087806
N       1.321187     -0.372274      0.635078
C       2.468808      0.397625      0.527980
O       3.488592      0.184256      1.120463
H      -2.831277      0.063103     -0.263350
H      -1.714665      0.690482     -1.481174
H      -2.274288     -0.981109     -1.587688
H       0.399721      0.912626     -0.739134
H      -0.914744     -1.401507      0.489557
H       2.389781      1.265847     -0.170014
