15
smiles: [C:1]([C:2]([C:3]([H:10])([H:11])[H:12])=[C:4]([H:13])[H:14])([H:6])([H:7])[H:8].[O:5]([H:9])[H:15]
C        0.07314700       1.48399000       0.21014200
C        0.03247100       0.24573000      -0.63766400
C        1.34712900      -0.45383500      -0.82695100
C       -1.09184400      -0.20179200      -1.18250900
O       -0.58998500      -1.57207000       1.93767800
H        0.42904400       1.24991100       1.21774400
H       -0.90817900       1.95077400       0.29251700
H        0.76960400       2.21662200      -0.20783400
H       -0.77702800      -1.27931300       1.04481400
H        2.07701000       0.21487200      -1.29231700
H        1.76612400      -0.75766700       0.13674700
H        1.24703800      -1.34114300      -1.45170500
H       -1.10813100      -1.09978200      -1.78952700
H       -2.03518500       0.31291800      -1.03971800
H       -1.24745700      -1.14524600       2.48851200
