11
Extracted from Q-Chem output
N       1.719922     -0.121435     -0.074004
C       0.360212      0.238737      0.037945
C       0.112421      1.694144      0.245002
O      -0.958018      2.198122      0.440009
C      -1.674643     -1.347130     -0.336201
C      -0.654204     -0.576562     -0.122820
H       2.278092      0.193688      0.706674
H       1.853143     -1.110611     -0.214999
H       1.039070      2.304798      0.205091
H      -2.193385     -1.831498      0.484542
H      -2.047302     -1.523714     -1.340177
