11
Extracted from Q-Chem output
C      -1.033649     -1.287523      0.491689
C      -0.229548      1.406065      0.207009
C      -0.215407     -0.090508      0.256020
C       0.915946      0.463390     -0.029707
C       2.276422      0.344750     -0.344310
N       3.394055      0.265788     -0.603277
H      -1.484282     -1.240385      1.485324
H      -0.441813     -2.197852      0.409312
H      -1.852643     -1.325660     -0.229993
H      -0.265476      1.971097      1.136973
H      -0.685561      1.908978     -0.644094
