11
Extracted from Q-Chem output
C      -1.264049     -0.829108      0.490012
C      -0.195945      0.723027      0.010040
C       0.537349     -0.941869      0.437940
C       1.127425      0.187683      0.093764
C       2.450578      0.625545     -0.095394
N       3.519594      1.014018     -0.259168
H      -1.341325     -1.201129      1.507203
H      -1.423683     -1.645156     -0.208425
H      -2.082616     -0.117993      0.345848
H      -0.548220      1.380313      0.798732
H      -0.636885      0.884465     -0.968758
