14
Extracted from Q-Chem output
O      -1.270173      0.125344      1.037978
C      -1.244013     -0.026856     -0.452737
C       0.180070      1.479605      0.719504
O       1.278500      0.807477      0.878715
C       1.797525     -0.012448     -0.161058
N       1.175599     -0.786820     -0.894280
C      -0.263935     -1.063764     -0.880792
H      -1.215538     -0.731535      1.496725
H      -2.238750     -0.367758     -0.755865
H      -0.085631      1.854071     -0.254273
H      -0.171147      1.959477      1.622587
H       2.878488      0.081641     -0.151159
H      -0.514943     -1.352876     -1.904099
H      -0.319156     -2.004311     -0.292779
