14
smiles: [C:1]([C:2]([C:3](=[O:4])[H:12])([H:10])[H:11])([H:7])([H:8])[H:9].[C:5](=[O:6])([H:13])[H:14]
C       -1.02762800      -1.50871300       0.35021200
C        0.35256400      -1.02017200       0.78395900
C        1.09417700      -0.36915200      -0.35050900
O        1.60932600       0.71337400      -0.30629100
C       -0.26874300       2.60721600      -0.89692200
O       -0.96804500       1.63725700      -0.89206600
H       -1.66543300      -0.67400900       0.05438600
H       -1.52384300      -2.03669200       1.16454500
H       -0.95792200      -2.19487900      -0.49686000
H        0.29496400      -0.31408700       1.61316200
H        0.95772000      -1.87376500       1.11099100
H        1.14091400      -0.97264000      -1.28463100
H        0.82410600       2.54139500      -0.73313400
H       -0.67658500       3.62251700      -1.06505600
