14
Extracted from Q-Chem output
C      -1.152521     -1.187827      0.250116
C       0.007703     -0.295862      0.453190
C       1.268421     -0.432185     -0.264363
O       2.017356      0.648490     -0.288529
C      -0.321310      1.822056     -0.592735
O      -0.977602      1.632150     -1.580543
H      -1.973372     -0.581436     -0.148076
H      -1.505448     -1.637388      1.179239
H      -0.939200     -1.958889     -0.490144
H       0.062113      0.277181      1.376838
H       1.617125     -1.180397      0.527523
H       1.167512     -1.019934     -1.194239
H       0.835111      1.388945     -0.437941
H      -0.601330      2.640603      0.113218
