19
Extracted from Q-Chem output
C       2.723629     -0.429438      0.270781
C       1.754299      0.723187      0.045746
C       0.347384      0.421494      0.517976
C      -2.251704      0.650694     -1.637859
C      -2.512740     -0.193837     -0.654299
C      -1.485090     -1.001347      0.088365
O      -0.157253     -0.674373     -0.218258
H       2.795742     -0.678233      1.332833
H       2.391962     -1.322511     -0.259257
H       3.725332     -0.176286     -0.080408
H       2.101162      1.617797      0.571366
H       1.715446      0.978868     -1.017243
H       0.350437      0.169862      1.589878
H      -1.235310      0.821205     -1.973868
H      -3.044154      1.190172     -2.141023
H      -3.540713     -0.359708     -0.340217
H      -0.296217      1.300318      0.385889
H      -1.663367     -0.911073      1.170364
H      -1.616979     -2.059257     -0.161347
