19
Extracted from Q-Chem output
C       2.952350     -0.333417      0.384228
C       1.775640      0.471032     -0.186879
C       0.464994      0.072343      0.381989
C      -2.163050      0.935994     -1.518511
C      -2.254252      0.312959     -0.255599
C      -1.497543     -1.115827      0.053835
O      -0.156385     -0.932547     -0.193032
H       3.015216     -0.222409      1.468761
H       2.838643     -1.394973      0.158884
H       3.896209      0.008594     -0.044682
H       1.929118      1.533620      0.021190
H       1.734570      0.357416     -1.271808
H       0.245537      0.260477      1.432978
H      -1.298926      1.535445     -1.774064
H      -2.923736      0.795534     -2.275670
H      -3.284292      0.103090      0.053375
H      -1.662730      0.914642      0.481338
H      -1.699642     -1.335285      1.105806
H      -1.845926     -1.919134     -0.591789
