17
Extracted from Q-Chem output
C       2.489162      0.273124      0.393905
C       1.266148     -0.580995      0.684596
C      -0.030154      0.043081      0.307384
C      -2.006850     -0.002174     -0.973674
C      -1.287121     -0.781563      0.169875
C      -0.232689      1.340974     -0.094256
C      -1.418247      1.367794     -0.756462
H       2.568596      0.487808     -0.672592
H       3.399933     -0.237452      0.710703
H       2.423192      1.230102      0.911443
H       1.334061     -1.552792      0.180706
H       1.216958     -0.829296      1.753673
H      -3.097503      0.014359     -0.899120
H      -1.759951     -0.449618     -1.941895
H      -1.061186     -1.827063     -0.056216
H      -1.912951     -0.773724      1.067268
H      -1.991850      2.263876     -0.980310
