12
Extracted from Q-Chem output
C       1.624295     -0.534208     -0.100747
N       0.509383      0.323308      0.196014
C      -0.765354      0.020077     -0.129614
N      -1.242230     -1.000638     -0.729250
C      -1.767962      1.063019      0.291454
O      -1.459627      2.072858      0.863480
H       1.513293     -1.514283      0.374265
H       2.536449     -0.077693      0.277440
H       1.739854     -0.684934     -1.178870
H       0.645054      1.195757      0.677974
H      -0.525491     -1.673209     -0.990370
H      -2.807663      0.809945      0.024630
