14
smiles: [C+:1](=[C:2]=[C-:3][H:9])[H:7].[C:4]1([H:8])([H:10])[C:5]([H:11])([H:12])[C:6]1([H:13])[H:14]
C        3.27502800      -0.82745900      -0.16184400
C        2.41368000      -0.58015600       0.67314600
C        1.44848800      -0.45437800       1.60823700
C       -0.70333900      -0.03801700      -0.78294500
C       -1.33014200       0.64696000       0.39330000
C       -2.17330400       0.25473100      -0.78209400
H        4.02279300      -1.04815100      -0.88757900
H       -0.38982400      -1.06680700      -0.66396300
H        1.23503400       0.59528300       1.84524900
H       -0.06897600       0.54939500      -1.43355700
H       -1.12103300       1.69837400       0.54064900
H       -1.44050800       0.08277200       1.30997900
H       -2.85744800      -0.57491300      -0.66225100
H       -2.53464200       1.04002800      -1.43288300
