12
Extracted from Q-Chem output
C      -2.947494     -0.166294      0.477617
C      -1.522872     -0.005533      0.224765
C      -0.340900      0.120661      0.023031
C       1.020326      0.289651     -0.256046
C       3.176559     -0.077956      0.579826
O       1.889089     -0.126040      0.622763
H      -3.431856     -0.717365     -0.331014
H      -3.103757     -0.722457      1.403485
H      -3.445608      0.800377      0.577011
H       1.397713      0.742751     -1.163938
H       3.669690      0.357091     -0.279591
H       3.679885     -0.491317      1.436160
