11
Extracted from Q-Chem output
C      -0.895590     -0.739058      0.737095
C       0.577762     -0.490487      0.729957
C       1.304549      0.022168     -0.242958
O       0.801053      0.440362     -1.492525
C      -1.109549      2.014621     -1.424876
N      -0.215185      1.266875     -1.400005
H      -1.423849      0.073162      1.242702
H      -1.305117     -0.824714     -0.267732
H      -1.113285     -1.660313      1.277996
H       1.137310     -0.751916      1.621819
H       2.377571      0.148818     -0.219043
