13
Extracted from Q-Chem output
C       1.481452      0.038277      0.557344
C       0.341177     -0.178615     -0.417764
C      -0.777045     -1.186792     -0.036121
N      -1.771958     -0.073786     -0.029702
C      -0.837293      0.738070     -0.335530
O      -0.898154      2.052852     -0.526162
H       2.059646      0.925383      0.293911
H       1.105294      0.168495      1.574257
H       2.156903     -0.819220      0.552404
H       0.710919     -0.305006     -1.437735
H      -0.659320     -1.648943      0.945774
H      -1.001725     -1.952983     -0.779322
H      -1.812789      2.328091     -0.386049
