14
Extracted from Q-Chem output
O      -0.178544     -1.572485      1.179706
C      -0.088147     -1.160756     -0.154908
C      -1.008574      0.501751     -0.370150
C      -0.189516      1.649804     -0.216619
C       1.071739     -0.380627     -0.383453
O       1.952858     -0.196006      0.537794
H      -0.962162     -1.169215      1.576175
H      -0.338529     -1.919521     -0.892315
H      -1.432091      0.320929     -1.356675
H      -1.725324      0.251694      0.425331
H       0.032831      2.263098     -1.078959
H      -0.066301      2.100011      0.758611
H       1.355337     -0.061430     -1.375352
H       1.593641     -0.616393      1.343660
