16
Extracted from Q-Chem output
C       2.241852     -0.172534      0.255653
C       0.866029     -0.261539      0.898101
C      -0.196733      0.367200      0.016851
O      -0.342492     -0.313771     -1.204364
C      -1.637435      0.219459      0.584220
C      -2.175170      0.062583     -0.770990
N      -2.678201      0.235920     -1.833427
H       2.543477      0.868304      0.114736
H       2.998477     -0.661553      0.870945
H       2.227117     -0.653958     -0.722609
H       0.863022      0.231569      1.876612
H       0.595050     -1.310108      1.057270
H       0.030806      1.435855     -0.130043
H      -1.498608      0.064023     -2.055385
H      -2.095859      1.052181      1.119558
H      -1.738687     -0.708736      1.147186
