15
Extracted from Q-Chem output
C       0.633906      1.073073     -0.226962
C       1.393391     -0.295422     -0.134999
C       0.215969     -1.300366     -0.283129
O      -0.572792     -1.265536      0.905280
C      -1.333242     -0.058502      0.853621
C      -0.850980      0.624756     -0.426109
C      -0.394958     -0.459665     -1.335264
H       0.709487      1.657648      0.689926
H       0.985340      1.681508     -1.056904
H       1.839357     -0.462403      0.844397
H       0.492553     -2.326162     -0.505565
H      -1.139399      0.539583      1.749196
H      -2.401760     -0.295329      0.819492
H      -1.495518      1.397190     -0.835870
H       2.158331     -0.407786     -0.900386
