16
Extracted from Q-Chem output
C      -1.240452     -1.147940     -0.195054
C      -0.830323     -0.011309     -1.124986
C      -0.629410      1.327648     -0.421700
C       0.568236      1.404201      0.490153
C       1.471644      0.475956      0.613402
N       2.373026     -0.360802      0.637940
O       2.192649     -1.357387      1.606791
H      -2.174006     -0.911435      0.321792
H      -0.482622     -1.350614      0.563470
H      -1.396411     -2.070398     -0.756837
H      -1.598404      0.122542     -1.891444
H      -0.530716      2.123632     -1.167082
H      -1.520919      1.575888      0.164612
H       0.697320      2.301437      1.087539
H       0.087678     -0.280023     -1.656944
H       2.963828     -1.914144      1.474601
