16
Extracted from Q-Chem output
C      -1.347223     -1.112481     -0.009447
C      -0.601404     -0.046813     -0.782402
C      -0.796612      1.391317     -0.263690
C       0.553749      1.277154      0.390366
C       0.913856      0.076330     -0.307605
N       1.729528     -0.970217     -0.008546
O       2.225114     -0.712411      1.259819
H      -2.414611     -1.076166     -0.238825
H      -1.218388     -0.971472      1.066343
H      -0.971634     -2.103990     -0.263413
H      -0.706380     -0.198778     -1.856638
H      -0.927502      2.183050     -1.006185
H      -1.625182      1.458356      0.448621
H       0.935487      1.707699      1.305515
H       1.401213      0.516172     -1.213467
H       2.847644     -1.429289      1.407963
