11
Extracted from Q-Chem output
O       1.904319     -0.424602     -0.920040
C       1.645542     -0.030260      0.280444
C       0.225249      0.024182      0.633620
N      -0.530331     -0.221393     -0.411095
C      -1.918199     -0.059715     -0.488749
O      -2.583520      0.348195      0.414952
H       2.291041     -0.324604      1.129046
H      -0.203304      0.340647      1.576768
H       1.597911      1.141549      0.441782
H       0.102538     -0.503463     -1.196700
H      -2.320737     -0.356697     -1.467813
