14
Extracted from Q-Chem output
C      -0.152194      1.718500     -0.915222
C      -0.112982      0.400792     -0.262788
C      -0.987852     -0.814994     -0.383992
C      -0.053140     -1.493947      0.658711
C       0.728660     -0.169804      0.657708
C       1.854451      0.429199      1.244491
H      -1.123032      2.192371     -0.746268
H      -0.047061      1.598682     -1.997498
H       0.647000      2.353498     -0.536447
H      -0.997349     -1.267095     -1.378739
H      -2.022627     -0.657576     -0.070213
H      -0.534764     -1.755752      1.601376
H       0.491636     -2.360802      0.282903
H       2.336895     -0.301981      1.919828
