11
smiles: [H:10][H:11].[O:1]=[c:2]1[o:3][c:4]([H:8])[c:5]([H:9])[c:6]#[c:7]1
O        2.01086900      -0.86472600       0.02901300
C        0.90243900      -0.46377200      -0.04106000
O       -0.16909200      -1.42390100       0.10959400
C       -1.46933200      -1.14183200       0.05464600
C       -2.00903600       0.08809100      -0.14947000
C       -0.92969400       0.97959300      -0.28692800
C        0.27550100       0.80375800      -0.24920700
H       -2.07196500      -2.03112700       0.19396600
H       -3.06883600       0.27501000      -0.18891000
H        3.31587700       1.46622400       0.22800100
H        3.43451100       2.19369100       0.33391400
