11
Extracted from Q-Chem output
O       2.266404     -1.025080      0.149955
C       1.157008     -0.596011      0.077305
O       0.067957     -1.460226      0.008546
C      -1.205353     -1.023271     -0.076351
C      -1.570964      0.271541     -0.103405
C      -0.527461      1.265053     -0.036172
C       0.633567      0.731491      0.040802
H      -1.891760     -1.859956     -0.120238
H      -2.620833      0.524941     -0.173913
H       1.821217      1.585758      0.516503
H       1.870218      1.585758     -0.283030
