14
smiles: [C-:5]#[O+:6].[C:1]([O:2][C:3](=[C:4]([H:11])[H:12])[H:10])([H:7])([H:8])[H:9].[H:13][H:14]
C        1.77598200       0.02908000      -0.10951600
O        0.46239500      -0.45026700       0.08358900
C       -0.23717700      -0.69415600      -1.04738700
C       -1.53039100      -0.97636300      -1.04080700
C       -0.84202200       2.42432900       0.28623700
O       -1.82667100       2.32330400       0.81757700
H        2.23379400       0.10386400       0.87467300
H        2.36422300      -0.65991800      -0.72463000
H        1.77216700       1.01766800      -0.57961000
H        0.34025300      -0.66003800      -1.96997600
H       -2.03589600      -1.18821100      -1.97131900
H       -2.09540800      -1.00555500      -0.11840300
H       -0.34161800      -0.24062900       2.51600900
H       -0.48806900      -0.09259200       3.23093300
