18
smiles: [C:1]([C:2]([O:3][C:4]([C:5]([H:12])([H:13])[H:15])=[C:6]([H:16])[H:18])([H:10])[H:11])([H:7])([H:8])[H:9].[H:14][H:17]
C        2.82702300       0.04938200       0.08139700
C        1.43140600       0.41766400       0.52513100
O        0.53472900       0.07089000      -0.51355700
C       -0.78339700       0.31199300      -0.32273900
C       -1.56523700      -0.11872900      -1.52176100
C       -1.32012100       0.85439800       0.76970700
H        3.09831800       0.58952400      -0.82639500
H        2.89767400      -1.02016700      -0.12006500
H        3.54686500       0.30178100       0.86156500
H        1.15410700      -0.11932600       1.43987000
H        1.35308500       1.49192300       0.73013200
H       -1.22355700       0.42204300      -2.40648000
H       -2.62820700       0.06570600      -1.38023900
H       -2.62875700      -2.61051000       1.03310900
H       -1.40944000      -1.18325400      -1.70755700
H       -0.74001900       1.16116700       1.62737500
H       -2.28854600      -1.94823000       1.02572500
H       -2.38933700       1.00111400       0.81394800
