18
Extracted from Q-Chem output
C       2.778695      0.000081      0.058104
C       1.385144      0.430000      0.451757
O       0.464470     -0.322888     -0.319439
C      -0.849387      0.085964     -0.301169
C      -1.656043     -0.655421     -1.256121
C      -1.473903      0.521375      0.882646
H       2.961772      0.201434     -0.998095
H       2.912341     -1.068170      0.232854
H       3.519012      0.542113      0.648776
H       1.217120      0.246185      1.518311
H       1.236051      1.500780      0.266727
H      -1.074443      0.819902     -1.226055
H      -2.681001     -0.335882     -1.390800
H      -2.187852     -1.640314      0.200017
H      -1.155953     -1.121747     -2.097545
H      -0.890909      0.887235      1.716290
H      -2.091223     -1.172208      0.900962
H      -2.470319      0.934808      0.790617
