16
Extracted from Q-Chem output
C      -1.542010     -1.373592     -0.235937
C      -0.674033     -0.247175     -0.743600
C      -0.579324      1.900503      0.026795
C       0.881710      1.457200     -0.024123
C       0.648357     -0.016915     -0.070270
N       1.278037     -0.971147      0.468079
O       2.451503     -0.543837      1.075760
H      -2.500677     -1.393854     -0.754731
H      -1.720813     -1.275112      0.835228
H      -1.040713     -2.328755     -0.399513
H      -0.540207     -0.281127     -1.830477
H      -1.232133      0.790752     -0.692637
H      -0.949731      1.565121      1.014567
H       1.449804      1.749091      0.861295
H       1.397207      1.828112     -0.912995
H       2.797888     -1.349115      1.464684
