12
Extracted from Q-Chem output
O       2.308266      0.575520     -1.230908
C       1.429171     -0.190686     -0.958352
C       0.601386     -0.065826      0.299906
C      -0.514303      1.008754      0.178903
N      -1.758435      0.260534      0.338718
C      -1.433845     -0.940265      0.517059
O      -0.122937     -1.281621      0.527384
H       1.147438     -1.030163     -1.626968
H       1.268633      0.113815      1.143916
H      -0.501874      1.516957     -0.786969
H      -0.430096      1.770880      0.953248
H      -2.117816     -1.765349      0.672227
