12
smiles: [C:2](=[C:3]([O:4][H:11])[H:10])([H:8])[H:9].[O:1]([C:5](=[O:6])[H:12])[H:7]
O       -0.29125500       2.22637800       0.29826300
C       -1.32384800      -2.14376300      -0.25282000
C       -0.15769100      -1.52781000      -0.15795600
O        0.06345000      -0.29836600      -0.69373900
C        1.02580500       2.35898700       0.48272400
O        1.83968200       1.52287600       0.22905300
H       -0.44736100       1.34624700      -0.07094800
H       -2.16129000      -1.68888700      -0.76559800
H       -1.44972100      -3.12072100       0.18998900
H        0.68785000      -1.97803100       0.35571100
H        0.96331900      -0.02419200      -0.51779900
H        1.24768900       3.34937100       0.90133500
