12
Extracted from Q-Chem output
O      -0.955077      1.180633      0.382618
C      -0.990578     -0.777738      0.149141
C       0.394844     -0.880499     -0.015574
O       0.865767     -0.976423     -1.304155
C       0.543766      0.849637      0.448467
O       1.238858      1.426192     -0.385433
H      -1.049020      1.624777     -0.469828
H      -1.646694     -0.763764     -0.711783
H      -1.448734     -0.964460      1.111219
H       0.959903     -1.430041      0.736009
H       1.316734     -0.124176     -1.468129
H       0.768108      0.846277      1.523898
