12
Extracted from Q-Chem output
C      -0.907590      0.108559      1.207737
C      -0.503447      0.203667     -0.059647
N      -1.071779      1.028019     -1.025413
N       0.532150     -0.577654     -0.593215
C       1.669199     -0.942468      0.069120
O       2.506157     -1.675978     -0.392664
H      -1.834268      1.592601     -0.689334
H      -1.621462      0.812941      1.611209
H      -0.558500     -0.686953      1.848444
H      -0.407516      1.560166     -1.566617
H       0.429933     -0.921292     -1.536302
H       1.748640     -0.477214      1.064759
