11
Extracted from Q-Chem output
O       0.267596     -2.439780     -1.453103
C      -1.295991      0.272835      1.352716
N      -0.037430      0.319569      1.170087
C       0.664088      0.887868     -0.034082
C       1.155206     -0.268229     -0.743670
C       0.636998     -1.369842     -1.101189
H      -1.939332      0.870940      0.719824
H       0.566151     -0.301830      1.700905
H      -0.081807      1.510526     -0.543054
H       1.441543      1.549492      0.358430
H      -1.715366     -0.378629      2.108161
