8
Extracted from Q-Chem output
O       0.210145      1.528289      0.088362
C      -0.798283      0.830335      0.079664
C      -0.728510     -0.594775     -0.017686
N       0.530601     -0.968608     -0.141102
C       1.600744     -0.475631     -0.286501
H      -1.798598      1.283819      0.122236
H      -1.545664     -1.292089     -0.072383
H       2.533410     -0.324091      0.226849
