13
Extracted from Q-Chem output
C      -0.808665      0.247463      1.015982
C      -0.557910     -1.009562      0.218024
O      -0.866345     -0.319815     -1.067275
C      -0.390253      0.924414     -0.275241
C       1.152478      0.528003     -0.405626
O       1.937756      0.558270      0.640747
C       0.693241     -0.886229     -0.535592
H      -1.861972      0.358034      1.265922
H      -0.136890      0.432078      1.852190
H      -1.040563     -1.970437      0.355358
H      -0.821693      1.844449     -0.654437
H       1.523044      0.939922     -1.367054
H       1.160828     -1.720193     -1.047295
