11
smiles: [C-:3]#[O+:4].[C:1]([C:2]([C:5]#[N:6])([H:10])[H:11])([H:7])([H:8])[H:9]
C       -1.16313800       0.54616300      -0.57050000
C       -0.01893500      -0.40643100      -0.91607400
C        0.71272700      -0.71934000       2.59125600
O        1.44264800      -0.52126100       3.42195500
C        1.28693200       0.13169900      -0.53912700
N        2.30427900       0.56692800      -0.23685300
H       -1.19661000       0.74334300       0.50083800
H       -2.11433000       0.10616400      -0.87000500
H       -1.04773700       1.49847700      -1.08779800
H        0.00242900      -0.61538000      -1.98770000
H       -0.14357500      -1.36478000      -0.40762700
