11
Extracted from Q-Chem output
C      -1.580132      0.250085     -0.275948
C      -0.185937     -0.105219     -0.569874
C       0.452650      0.215687      1.574697
O       1.018636      0.300091      2.542053
C       2.263343     -0.438545     -0.141477
N       3.351241     -0.652786     -0.481987
H      -2.069859     -0.430777      0.415447
H      -2.057934      0.130099     -1.263649
H      -1.711535      1.286090      0.026403
H       0.434496      0.587598     -1.119256
H       0.085030     -1.142325     -0.706410
