17
Extracted from Q-Chem output
C       1.940599      0.223435     -0.717885
C       0.621662      0.194698     -0.014668
C       0.084946     -1.110695      0.611059
C      -1.221555     -0.940859     -0.200680
C      -0.770904      0.472678     -0.628528
C      -0.794385      1.614613      0.393356
O       0.436391      1.325004      0.880191
H       2.751877      0.075029     -0.001782
H       1.988948     -0.576254     -1.458777
H       2.087987      1.179713     -1.220984
H       0.666302     -2.004495      0.387837
H      -0.034759     -1.027018      1.691041
H      -2.165249     -1.013656      0.336680
H      -1.249459     -1.609311     -1.063204
H      -0.941739      0.782711     -1.657980
H      -1.924071      0.880306      1.569781
H      -1.733204      1.724935      1.231624
