11
Extracted from Q-Chem output
N      -2.026685     -0.474380      0.036951
C      -0.651054     -0.125897      0.014762
N      -0.501853     -1.376235     -0.213983
N       1.724013     -0.723845     -0.231853
C       1.513504      0.524556      0.002059
C       0.161801      0.955490      0.156723
H      -2.587174     -0.362602     -0.788707
H      -2.484002     -0.659843      0.911560
H       2.701678     -0.967548     -0.330903
H       2.321339      1.256104      0.087779
H      -0.171569      1.959218      0.355279
