12
Extracted from Q-Chem output
O      -0.336159     -1.591525      0.094740
C      -0.354133     -0.546904      0.985236
C      -0.851940      0.683222      0.346583
C       0.897072      0.333043      0.546989
C      -0.026111      0.577625     -0.781745
C      -0.214099     -0.928139     -1.259869
N      -0.303787     -1.395044     -2.347791
H      -0.589353     -0.799765      2.010745
H      -1.311718      1.548945      0.810088
H       1.713905     -0.325395      0.249075
H       1.212589      1.188827      1.134179
H       0.161091      1.340911     -1.520424
