12
Extracted from Q-Chem output
C      -2.529565      0.145633      0.345949
C      -1.333846     -0.730573      0.305163
C      -0.100117     -0.336349      0.375357
C       1.219998     -0.305064      0.068962
C       2.616832     -0.095687      0.323738
O       2.015214     -0.364221     -0.995543
H      -3.074420      0.010575     -0.592904
H      -3.216391     -0.188653      1.126552
H      -2.334570      1.218215      0.480372
H       0.319109      0.807988      0.574374
H       3.218279     -0.910599      0.711478
H       3.020720      0.905467      0.426438
