17
Extracted from Q-Chem output
C      -2.201215      0.168523      0.078455
C      -1.054591     -0.281331      0.759714
C      -0.175202     -1.344287      0.181024
C       1.305559     -1.063462      0.089429
C       1.878273      0.117097     -0.091118
C       1.170044      1.436965     -0.161544
O      -0.134328      1.354488      0.330062
H      -3.005687      0.615641      0.649271
H      -2.490056     -0.357803     -0.825097
H      -1.237764      1.141202     -0.208721
H      -0.950598     -0.110343      1.824518
H      -0.541991     -1.604285     -0.817552
H      -0.327941     -2.237511      0.796291
H       1.938293     -1.944888      0.107565
H       2.957107      0.158291     -0.206989
H       1.744174      2.178334      0.410384
H       1.168913      1.782862     -1.204750
