15
Extracted from Q-Chem output
C       1.965772     -0.072062      0.557989
N       0.942475      0.195307     -0.999397
C       0.622132     -1.054007     -0.446125
C      -0.664753     -1.043736      0.083811
C      -1.134498      0.261861     -0.097638
N      -2.355603      0.761862      0.318623
C      -0.117691      0.983460     -0.736016
H       2.477173     -0.987371      0.848951
H       2.689464      0.654524      0.208033
H       1.330712      0.315134      1.347959
H       1.205937     -1.917328     -0.727718
H      -1.181690     -1.869474      0.548393
H      -3.089598      0.079717      0.403750
H      -2.662278      1.592651     -0.157911
H      -0.110348      2.031703     -0.999042
