11
Extracted from Q-Chem output
N      -1.877383     -0.472370     -0.274210
C      -0.567384     -0.073402     -0.012509
C       0.592844     -0.746769     -0.281720
N       1.627694      0.075603      0.022747
N       1.178956      1.216373      0.586105
C      -0.217197      1.181826      0.579540
H      -2.540217      0.088491      0.237212
H      -2.057265     -1.454436     -0.142169
H       0.771374     -1.739534     -0.666546
H       2.610224     -0.131128      0.007443
H       0.614459      2.034593     -0.063383
