17
smiles: [C:1](/[C:2](=[N:3]\[H:12])[H:11])([H:8])([H:9])[H:10].[C:4](=[C:5]1[C:6]([H:15])([H:16])[N:7]1[H:17])([H:13])[H:14]
C       -2.87989300       0.24505900      -0.91347600
C       -1.51748100       0.32830000      -0.29563000
N       -0.98291900       1.32483400       0.26563500
C        1.63138100      -1.94171000       0.40541200
C        1.96220400      -0.66956400       0.39789900
C        2.54938000       0.50403400      -0.21110900
N        1.84701300       0.52477800       1.10055800
H       -2.79934600      -0.03125200      -1.96774100
H       -3.41430500       1.19308500      -0.83679200
H       -3.46821500      -0.53472800      -0.42357900
H       -0.92265000      -0.58890800      -0.33865400
H       -1.61433800       2.12724200       0.25587400
H        1.96689400      -2.59959200      -0.38420200
H        1.02834200      -2.35582200       1.20322400
H        3.61435200       0.69481300      -0.14825600
H        2.05071400       0.92964200      -1.07631500
H        0.92380300       0.94004000       1.07191800
