14
Extracted from Q-Chem output
O       2.569306     -1.261981      1.022781
C       1.502542     -0.859887      0.287933
C      -1.292709     -0.306696     -0.914661
C      -1.655605      0.714765      0.121759
C      -0.274443      0.701331     -0.473212
C       0.895342      0.317795      0.355555
H       2.835143     -0.551628      1.612608
H       1.184374     -1.639813     -0.393886
H      -1.713423     -0.203774     -1.906116
H      -1.176032     -1.330550     -0.584872
H      -2.328555      1.515601     -0.155398
H      -1.755291      0.370918      1.143506
H      -0.080278      1.500137     -1.182681
H       1.269941      1.067924      1.050926
