16
Extracted from Q-Chem output
C       0.709609      1.225041      0.568695
C       0.099808      0.046926     -0.185378
C       1.172308     -0.906220     -0.705559
C      -0.895913     -0.723852      0.699322
O      -1.946880      0.067625      1.183244
C      -1.285116      0.969933     -2.187247
N      -0.645399      0.557517     -1.306852
H       1.358591      1.805019     -0.087754
H       1.301416      0.854008      1.406880
H      -0.072954      1.874910      0.957066
H       1.731069     -1.324364      0.133145
H       0.726145     -1.724886     -1.271384
H       1.868851     -0.376892     -1.355674
H      -1.270204     -1.588054      0.136900
H      -0.356818     -1.095349      1.573002
H      -2.494511      0.338639      0.441594
