16
Extracted from Q-Chem output
C       0.814492      1.194772      0.589230
C       0.186375      0.027016     -0.159013
C       1.227635     -0.915899     -0.729477
C      -0.896489     -0.702245      0.686511
O      -2.054199      0.027668      0.767227
C      -1.795614      0.779661     -1.087154
N      -0.637029      0.615081     -1.270501
H       1.390847      1.826317     -0.087764
H       1.487869      0.814563      1.359132
H       0.040420      1.796206      1.066522
H       1.746372     -1.419815      0.088379
H       0.765477     -1.674116     -1.362312
H       1.966780     -0.372473     -1.318870
H      -1.053431     -1.705876      0.255859
H      -0.472494     -0.827560      1.691689
H      -2.717011      0.536700     -0.489456
