15
Extracted from Q-Chem output
C      -1.090245      0.982177      0.146014
C      -0.528589     -0.318029      0.714180
C      -1.514830     -1.449615      0.509550
O      -1.244805     -2.546784      0.110594
C       0.843273     -0.682715      0.213797
C       1.614238      0.112638     -0.467218
C       2.383938      0.907202     -1.150461
H      -2.082866      1.186912      0.551822
H      -0.442571      1.821985      0.395577
H      -1.165715      0.929769     -0.941708
H      -0.479338     -0.210987      1.809478
H       2.347176      0.926062     -2.233606
H      -2.561116     -1.191371      0.782755
H       1.191619     -1.686462      0.435980
H       3.087296      1.566978     -0.655604
