12
Extracted from Q-Chem output
O       2.151778      1.063626     -0.186890
C       1.231725      0.414746     -0.598902
C       0.514736     -0.672128      0.164652
C      -0.966819     -0.442520      0.255252
C      -1.617203     -0.275106      1.394784
O       0.725965      0.580150     -1.835308
H       1.231284      1.288622     -2.253356
H       0.968340     -0.730815      1.152207
H       0.708533     -1.612841     -0.361269
H      -1.505531     -0.415823     -0.686764
H      -2.688407     -0.116983      1.413169
H      -1.103918     -0.290275      2.350335
