9
smiles: [C-:4]#[O+:5].[N:1]([C+:2]([N-:3][H:8])[H:7])([H:6])[H:9]
N       -0.75415800       1.05922100       0.29523800
C       -0.76125800      -0.10702600       1.00243700
N        0.16143800      -0.96991500       0.89231800
C        1.85458300      -0.08245900      -1.61086300
O        2.59964000      -0.91368000      -1.73748100
H       -1.60719600       1.57498900       0.19345100
H       -1.61639200      -0.19288000       1.68113100
H        0.00615200      -1.74356200       1.52718300
H       -0.07977600       1.13389300      -0.44730800
