16
Extracted from Q-Chem output
N       2.546108      0.413843     -0.243697
C       1.189368      0.160294     -0.091098
C       0.646030     -0.991188      0.316971
C      -0.840187     -1.179005      0.432164
C      -1.563594     -0.025707     -0.256439
C      -0.866078      1.277656      0.078825
O       0.480685      1.279109     -0.381358
H       2.727968      1.198401     -0.848565
H       3.091086     -0.395338     -0.488341
H       1.309099     -1.811089      0.561670
H      -1.148656     -1.235553      1.483111
H      -1.141068     -2.127433     -0.021870
H      -1.545373     -0.161925     -1.341350
H      -2.610415      0.031032      0.050261
H      -0.863747      1.442963      1.162934
H      -1.337149      2.133904     -0.402891
