16
Extracted from Q-Chem output
N       2.422418      0.261759     -0.660676
C       1.197230      0.367224     -0.207877
C       0.788742     -0.906243      0.305164
C      -0.697052     -1.228761      0.255308
C      -1.472494     -0.028561     -0.309478
C      -0.883122      1.279790      0.185785
O       0.454100      1.452580     -0.329255
H       3.028684      1.075182     -0.707686
H       2.145281     -0.970908     -0.369244
H       1.267734     -1.091695      1.265202
H      -1.071716     -1.456607      1.257916
H      -0.903566     -2.111029     -0.356307
H      -1.433149     -0.023046     -1.402990
H      -2.527890     -0.075563     -0.030401
H      -0.841970      1.311043      1.279196
H      -1.434424      2.147119     -0.172851
