19
Extracted from Q-Chem output
C       2.377409      0.400256     -0.693852
C       1.128811     -0.472434     -0.722303
C       0.254948     -0.278319      0.504024
C      -0.495847      1.074874      0.700672
C      -1.807555      0.306839      0.834285
C      -2.063099     -0.474196     -0.411833
C      -1.086025     -1.007423      0.587889
H       2.985144      0.260951     -1.589589
H       3.002077      0.165440      0.171749
H       2.116202      1.459772     -0.632423
H       0.549384     -0.254064     -1.624813
H       1.414022     -1.527499     -0.790994
H       0.844162     -0.491817      1.400178
H      -0.452961      1.776983     -0.137123
H      -0.193143      1.596501      1.607609
H      -2.592473      0.520070      1.546951
H      -3.009536     -0.999057     -0.448357
H      -1.728187     -0.092864     -1.371295
H      -1.243334     -1.964014      1.069226
