19
Extracted from Q-Chem output
C       2.449000      0.242703     -0.735805
C       1.138033     -0.528166     -0.748895
C       0.452164     -0.617261      0.568696
C      -0.629618      1.245960      0.925199
C      -1.726141      0.210961      0.887530
C      -1.954546     -0.464007     -0.428346
C      -0.988512     -1.054702      0.560626
H       2.964722      0.173606     -1.695345
H       3.110490     -0.132874      0.045684
H       2.267601      1.302383     -0.536115
H       0.506331     -0.206046     -1.588917
H       1.333490     -1.596466     -0.939607
H       0.409720      0.625911      1.125932
H      -0.557905      1.910807      0.066122
H      -0.582738      1.812554      1.855785
H      -2.530865      0.257633      1.609077
H      -2.901556     -0.976233     -0.540975
H      -1.590884      0.008168     -1.333586
H      -1.218582     -2.013807      1.009826
