14
smiles: [C:3]1(=[C:6](/[O:7][H:8])[H:14])\[C:4]([H:11])([H:12])[N:5]1[H:13].[O:1]=[C:2]([H:9])[H:10]
O        1.88577000       1.55994800      -0.01826600
C        2.20793900       0.53967100      -0.55221400
C       -0.98679000      -0.32580200       0.07990500
C       -1.02778700      -1.68237600       0.55842600
N        0.18386200      -0.82190300       0.69465800
C       -1.46136100       0.74105800      -0.52128000
O       -0.79041800       1.91987100      -0.66454300
H        0.12111100       1.79315500      -0.38755800
H        1.63263500       0.11251000      -1.39601400
H        3.09919300      -0.03293200      -0.23116200
H       -0.90729900      -2.51333500      -0.12711300
H       -1.59909000      -1.90083000       1.45524200
H        0.28562600      -0.48754000       1.64786100
H       -2.45093700       0.76655300      -0.95529900
