14
Extracted from Q-Chem output
O       1.761862      1.338894     -0.215594
C       1.404816      0.238461     -0.728735
C      -0.405719     -0.208313      0.125721
C      -0.794536     -1.579246      0.391173
N      -0.052145     -0.760098      1.379031
C      -0.898435      0.968641     -0.370296
O      -0.462327      2.113586      0.034692
H       0.636838      1.982529      0.055794
H       1.203884      0.179181     -1.808418
H       1.752181     -0.694516     -0.272119
H      -0.226587     -2.406319     -0.019771
H      -1.844159     -1.788111      0.571668
H      -0.646518     -0.412105      2.122983
H      -1.521139      0.947433     -1.268435
