11
Extracted from Q-Chem output
O      -1.776143     -1.660890      0.102732
C      -1.570124     -0.457672      0.191825
C      -0.404516      0.183541     -0.282559
C       0.279863      1.419354     -0.033576
N       1.567276      1.197198     -0.007915
C       1.363127     -0.195371      0.057846
N       0.671473     -0.730788     -0.945593
H      -2.312530      0.222670      0.650097
H      -0.165580      2.399585      0.107471
H       1.711666     -0.751466      0.929975
H       0.389138     -1.693665     -0.761410
