9
Extracted from Q-Chem output
C      -0.979041     -0.346433      0.106363
C       0.673513      0.874546      0.060151
O       0.727153     -0.669241      0.254163
H      -1.323097      0.023177      1.059253
H      -1.383767      0.222192     -0.720146
H      -1.185359     -1.420217     -0.013283
H       1.423251      1.276663      0.747256
H       1.000176      1.062641     -0.967235
H       1.130925     -1.113756     -0.502708
