9
Extracted from Q-Chem output
C       2.125037      0.348631      0.064255
C       0.983510     -0.414721     -0.237647
C      -0.218460      0.135856      0.078582
C      -1.648048      0.174839      0.173324
O      -0.696630      1.221478      0.605674
H       3.011204     -0.233797     -0.244675
H       0.933834     -1.403882     -0.695196
H      -2.150808     -0.329135      0.990334
H      -2.242927      0.447178     -0.690503
