12
Extracted from Q-Chem output
O      -2.306475      0.913591     -0.440316
C      -1.640923     -0.249945     -0.031691
C      -0.154242     -0.085542     -0.028580
N       0.425251      0.912506     -0.721954
N       1.722646      0.818557     -0.518448
C       1.882869     -0.355506      0.263081
N       0.697085     -0.901727      0.573472
H      -1.731000      1.392329     -1.045358
H      -1.886193     -1.103579     -0.678818
H      -1.971005     -0.505392      0.976856
H       2.159451     -0.347948     -0.969089
H       2.822828     -0.577168      0.750720
