16
Extracted from Q-Chem output
O       2.806878     -0.148041      0.238312
C       1.749636     -0.561757      0.627347
C       0.724755     -1.252138     -0.231249
C      -0.724319     -0.872229      0.077947
C      -1.165406      0.476526     -0.488824
C      -0.436434      1.680976      0.095426
H       0.626732      1.679110     -0.152825
H       0.862000     -2.322108     -0.030195
H       1.477490     -0.477466      1.703404
H       0.979043     -1.087975     -1.280778
H      -0.875746     -0.880294      1.164259
H      -1.378187     -1.651402     -0.320489
H      -1.037034      0.464059     -1.576241
H      -2.239101      0.587762     -0.312512
H      -0.525821      1.706754      1.184859
H      -0.853729      2.612253     -0.290913
