16
Extracted from Q-Chem output
O       2.378023      0.374995      0.232765
C       1.626964     -0.657780      0.596060
C       0.436256     -0.716819     -0.271547
C      -0.989180     -0.958506      0.050893
C      -1.410660      0.453368     -0.389166
C      -0.195105      1.335009     -0.015179
H       0.969383      1.017862     -0.119471
H       2.058009     -1.667856      0.332290
H       1.347214     -0.736264      1.666866
H       0.689270     -0.676019     -1.330293
H      -1.136547     -1.115347      1.119975
H      -1.457804     -1.763078     -0.515319
H      -1.560829      0.457666     -1.469817
H      -2.333509      0.799039      0.077446
H      -0.215619      1.554677      1.054815
H      -0.188756      2.271606     -0.574980
