11
Extracted from Q-Chem output
O       1.126644     -0.475858      2.037860
C       0.673962     -0.106902      1.001726
C       0.817507     -0.592439     -0.457611
C      -0.209900      0.481238     -0.791824
N      -1.451748      0.172129     -0.120170
C      -0.182999      1.105539      0.589193
H       1.817965     -0.345938     -0.816019
H       0.590060     -1.628340     -0.714206
H      -0.291724      1.004323     -1.735909
H      -1.491162     -0.738553      0.324502
H      -1.583408      1.053512      0.602843
