11
Extracted from Q-Chem output
O      -0.843452      0.849106     -0.326821
C      -0.939370     -0.487176      0.244087
C       0.533276     -0.833200      0.047659
C       0.797579      0.589733     -0.477187
O       1.122650      1.520073      0.373589
H      -0.174354      1.516219      0.407136
H      -1.623630     -1.079034     -0.360354
H      -1.302669     -0.447372      1.270929
H       0.710768     -1.617010     -0.686973
H       1.101064     -1.029663      0.954313
H       1.087996      0.710962     -1.527983
