12
Extracted from Q-Chem output
C      -1.254991     -0.681840     -0.165683
C      -0.076191      0.248842     -0.034885
C      -0.218522      1.654205     -0.491893
O      -0.136999      1.109298      1.166380
C       1.209003     -0.429753     -0.069277
C       2.260011     -0.995122     -0.162665
H      -1.241091     -1.456334      0.603473
H      -1.211486     -1.167249     -1.141253
H      -2.181696     -0.107593     -0.120252
H      -1.064457      1.204459      1.411769
H       0.800159      2.060430     -0.559529
H       3.199341     -1.490660     -0.236487
