11
Extracted from Q-Chem output
N       2.176103      0.221777     -0.161727
C       0.937016      0.059479     -0.049257
C      -0.131759      1.101197     -0.290779
C      -1.450589      0.454479     -0.210973
C      -1.107782     -0.901543      0.227182
O       0.315351     -1.088249      0.327190
H       2.683525     -0.630857      0.061417
H       0.021102      1.726795     -1.170981
H      -0.155328      1.819919      0.545758
H      -1.524202     -1.619098     -0.491029
H      -1.584842     -1.110397      1.192371
