11
Extracted from Q-Chem output
N       2.221014      0.161339     -0.245516
C       0.979910      0.010322     -0.118225
C      -0.061915      1.026009     -0.465212
C      -1.357484      0.531408     -0.299321
C      -1.102371     -0.822807      0.278025
O       0.324497     -1.076657      0.335568
H       2.728050     -0.674643      0.035405
H       0.207601      1.963191     -0.939362
H      -0.739220      1.431620      0.499550
H      -1.558414     -1.569076     -0.377856
H      -1.521773     -0.946703      1.278100
