16
smiles: [C:1]([C:2]1=[C:6]([O-:7])[N+:4](=[C:5]([H:15])[H:16])[C:3]1([H:12])[H:13])([H:8])([H:9])[H:10].[H:11][H:14]
C        2.36112700      -0.12566500       0.17563900
C        0.88158700      -0.17596900       0.17286800
C       -0.10170700      -0.44922400      -0.93738200
N       -1.14451300      -0.25720400       0.08554300
C       -2.40520300      -0.29374000       0.08086100
C       -0.06771600       0.01062900       1.15589700
O       -0.30563200       0.25885500       2.31486300
H        2.80479400      -1.08190000      -0.12150500
H        2.72174000       0.11469900       1.17580100
H        2.74563100       0.63510000      -0.51207800
H       -0.24930000       2.42444500      -0.35317100
H       -0.18996900       0.28641200      -1.74752800
H       -0.13519600      -1.45897400      -1.36693700
H       -0.68236500       2.81925900      -0.81245400
H       -2.95573800      -0.50869700      -0.82848600
H       -2.91448600      -0.10270600       1.02005900
