17
Extracted from Q-Chem output
C       2.266044      0.792674     -0.060986
C       1.040148     -0.093810     -0.219794
O       0.485209     -0.296492      1.074147
C      -0.703937     -1.049733      1.008895
C      -1.803257     -0.260990      0.315883
C      -1.241997      0.439956     -0.933683
C       0.157681      0.312224     -1.320677
H       1.963729      1.791057      0.258494
H       2.928968      0.375895      0.696725
H       2.792282      0.873733     -1.009851
H       1.373475     -1.077082     -0.626344
H      -0.975357     -1.306997      2.032912
H      -2.223929      0.471678      1.007186
H      -2.615212     -0.933030      0.029844
H      -1.925507      0.438448     -1.783603
H      -1.086676      1.529733     -0.730899
H      -0.515249     -1.989187      0.465862
