17
Extracted from Q-Chem output
C       1.962677      0.874960     -0.207010
C       1.163197     -0.395187     -0.052099
O       0.529756     -0.513713      1.235161
C      -0.706031     -1.040094      0.847386
C      -1.745089     -0.002337      0.482619
C      -1.075570      0.507341     -0.796336
C      -0.015799     -0.584753     -1.016932
H       1.351504      1.765453     -0.060657
H       2.771136      0.892394      0.524538
H       2.404055      0.912278     -1.204940
H       1.845196     -1.249590     -0.144025
H      -1.009082     -1.869840      1.493247
H      -1.911993      0.724116      1.280604
H      -2.695131     -0.494133      0.262197
H      -1.761434      0.588800     -1.639012
H      -0.608991      1.485720     -0.661392
H      -0.539584     -1.603232     -0.272024
