11
Extracted from Q-Chem output
N       0.893442      0.511804     -0.360340
C       0.566122     -0.785292     -0.592618
C      -0.692364     -1.017606      0.227360
O      -0.862398      0.154154      1.000319
C      -0.102295      1.193494      0.431519
O       1.137906     -1.574830     -1.302373
H       1.620405      0.974606     -0.875778
H      -1.538491     -1.188463     -0.448641
H      -0.581932     -1.879985      0.884314
H      -0.734383      1.845909     -0.188163
H       0.344774      1.781286      1.236595
