13
Extracted from Q-Chem output
O      -2.138241     -0.049201      0.386220
C      -1.026978     -0.701425      0.650744
C      -0.001775     -0.611178     -0.394136
C      -0.465895      1.844740     -0.392771
O       0.197101      2.340553      0.469206
C       1.354425     -0.872410     -0.168228
C       2.524396     -1.045768      0.049740
H      -1.338741      1.020992     -0.137859
H      -0.601332     -0.621320      1.665542
H      -1.169091     -1.814702      0.470299
H      -0.360553     -0.630329     -1.420041
H      -0.494163      2.280276     -1.417214
H       3.560675     -1.200370      0.243607
