13
Extracted from Q-Chem output
C       0.594334      0.588401      1.199247
O       0.443006     -0.834890      1.317605
C      -0.008232     -1.480287      0.200759
C      -1.082849     -0.722812     -0.553717
O      -1.442772      0.522230      0.049727
C      -0.069107      0.938418     -0.105053
C       0.207559     -0.203624     -1.093306
H       1.664410      0.822785      1.211771
H       0.094748      1.077996      2.036109
H       0.925728     -1.224483     -0.692925
H      -1.875712     -1.253507     -1.065373
H       0.041621      1.966675     -0.444050
H       0.537590     -0.139461     -2.123008
