18
Extracted from Q-Chem output
C      -1.585308     -0.086305     -1.503346
C      -1.339661     -0.825952     -0.234919
C       0.822287      0.575853      0.325924
C       0.962463      1.921115      0.958209
N       1.354269     -0.499956      0.969996
C       1.063191     -1.737497      0.562944
O       0.325512     -1.843745     -0.452305
H      -1.510503      0.993169     -1.370524
H      -0.849651     -0.385607     -2.257565
H      -2.570583     -0.325704     -1.916572
H      -1.487074     -0.293310      0.694650
H      -1.745575     -1.828062     -0.206542
H       0.794128      0.487319     -0.748893
H       0.280904      2.627786      0.481758
H       0.703943      1.899821      2.021534
H       1.971650      2.347914      0.872426
H       1.784388     -0.379949      1.874466
H       1.343720     -2.568947      1.207551
