13
smiles: [C:1]1([H:7])([H:8])[O+:2]=[C-:3][C@@:4]2([H:11])[N:5]([H:12])[C@@:6]12[H:13].[H:9][H:10]
C       -1.46777000      -0.52619200      -0.11248000
O       -0.27530900      -1.32299500      -0.44867900
C        0.85926300      -0.69622700      -0.36551600
C        0.54546700       0.72896600      -0.03879100
N       -0.23008500       1.40607900      -1.08779700
C       -0.93889000       0.86187700       0.04427600
H       -1.88761700      -0.93577800       0.80597100
H       -2.17471300      -0.66058200      -0.93145500
H        3.36756800      -1.37158900       1.94192100
H        2.99493800      -1.36882200       1.29730400
H        1.26023900       1.33990500       0.49394800
H       -0.31712400       0.82094800      -1.91460800
H       -1.43055600       1.56592700       0.70218300
