13
Extracted from Q-Chem output
C      -1.141190     -0.669442      0.045149
O       0.039889     -1.354701     -0.446805
C       1.148071     -0.633915     -0.307296
C       0.737173      0.776813     -0.014207
N      -0.115713      1.342749     -1.052277
C      -0.741205      0.774489      0.125935
H      -1.388624     -1.072702      1.032046
H      -1.949615     -0.886910     -0.653737
H       1.639077     -0.889338      1.374418
H       1.983195     -1.096284      0.568381
H       1.411206      1.452093      0.494976
H      -0.181464      0.730984     -1.860446
H      -1.288441      1.448656      0.771726
