12
Extracted from Q-Chem output
C      -1.664477     -1.292014      0.415802
C      -0.991142     -0.010032      0.774890
O      -1.430616      0.521208      1.963346
C       2.052870      0.947075     -0.714171
C       3.245980      0.872180     -0.793920
C      -0.048751      0.528275      0.048445
N       0.716721      1.117832     -0.723577
H      -1.282087     -1.683951     -0.525063
H      -1.497648     -2.032826      1.200239
H      -2.739872     -1.128153      0.321542
H      -1.023477      1.377030      2.115563
H       4.304812      0.793176     -0.853191
