13
Extracted from Q-Chem output
N       1.816036      1.179461      1.318888
C       1.203057      0.489692      0.470343
C       1.363912     -0.341708     -0.738759
C       0.013664     -0.087436     -0.094129
C      -1.157457     -0.890351      0.331506
C      -1.338428      0.330418     -0.535076
H       1.806526     -1.326431     -0.627535
H       1.582495      0.157753     -1.677119
H       1.163474      1.564062      2.002015
H      -1.462790     -0.830372      1.368689
H      -1.291545     -1.860745     -0.130054
H      -1.592702      0.175055     -1.576177
H      -1.767245      1.217579     -0.086266
