15
Extracted from Q-Chem output
C       2.355984     -0.509425      0.233018
N       1.015116      0.020837      0.053677
C       0.702229      1.278158     -0.369173
C      -0.679902      1.439202     -0.469737
C      -1.085448      0.044690     -0.147197
C      -2.453126     -0.402392      0.286160
N       0.005929     -0.756855      0.221820
H       3.024494      0.305441      0.501850
H       2.693757     -0.970278     -0.694353
H       2.325490     -1.255568      1.021984
H       1.503182      1.986137     -0.527309
H      -1.018283      0.123039     -1.301241
H      -3.211554      0.165291     -0.249954
H      -2.582686     -0.215552      1.352410
H      -2.598687     -1.467507      0.103615
