10
Extracted from Q-Chem output
O      -2.921193      0.541659     -1.448034
C      -2.019190     -0.227899     -1.370253
C      -0.379252      0.051890      0.353540
N      -1.313504     -0.478345     -0.174298
O       2.240070     -0.801356     -0.174749
C       2.007558      0.048021      0.648981
C       0.670872      0.557437      0.970468
H      -1.672731     -0.877980     -2.186448
H       2.823475      0.512957      1.233046
H       0.527934      1.343500      1.698809
