13
Extracted from Q-Chem output
O       1.547560      1.028111     -1.090063
C       1.697167     -0.068000     -0.198546
C       0.520248     -0.567995      0.570397
C      -0.504050      0.297534      1.006473
C      -1.785982     -0.553298      1.031178
C      -1.003440     -0.371486     -0.206318
O      -0.928084      1.279130      0.165281
H       0.892847      1.629249     -0.723528
H       2.452870      0.145873      0.573425
H       2.103227     -0.884690     -0.797753
H      -2.713882     -0.003795      1.116889
H      -1.712725     -1.524747      1.500443
H      -0.863250     -0.509270     -1.265839
