14
Extracted from Q-Chem output
C      -1.528645     -0.986798     -0.644459
C      -0.203441     -0.396113     -0.337874
N      -0.110228      0.887722      0.308965
O      -0.469458      0.692692      1.689293
C       1.025588     -0.877751     -0.486784
C       1.309057      1.181561      0.215920
O       2.002098     -0.045326     -0.031506
H      -2.097500     -0.344412     -1.320299
H      -1.416935     -1.966257     -1.109448
H      -2.111585     -1.109161      0.271127
H      -1.140417      1.363917      1.832714
H       1.357676     -1.815695     -0.905261
H       1.472713      1.831997     -0.648061
H       1.672622      1.636929      1.133476
