14
Extracted from Q-Chem output
O       2.407589      0.713436     -1.223366
C       1.489267     -0.011064     -0.622139
C       0.599256      0.911139      0.075553
C      -0.880219      0.725941     -0.068398
C      -1.303064     -0.723921     -0.235446
C      -0.541329     -0.969809      1.080583
N      -0.226073      0.490636      1.228135
H       2.990898      0.118554     -1.704493
H       0.336299     -1.609464      1.028300
H       0.911644      1.948159      0.177988
H      -1.493270      1.599124     -0.261004
H      -0.959717     -1.241736     -1.128209
H      -2.379446     -0.849236     -0.127123
H      -1.180551     -1.269832      1.908824
