10
Extracted from Q-Chem output
C       1.254732      0.709464      0.231980
C       1.174729     -0.536423     -0.419729
C       0.353558     -1.300927     -0.902443
C       0.037229      1.293666      0.282219
O      -1.057805      0.835012     -0.368026
N      -1.618500     -0.446909      0.076826
C      -0.950994     -1.459193     -0.312008
H       2.119380      1.120943      0.729840
H      -0.126351      2.234069      0.803574
H      -1.386764     -2.419178     -0.056985
