10
Extracted from Q-Chem output
N      -2.012099     -0.120600      0.171044
C      -0.660030     -0.278724      0.170376
N      -0.065192     -1.351301      0.616028
O       1.303163     -1.025929      0.472912
C       1.327502      0.177619     -0.043536
O       2.516905      0.690511     -0.273470
N       0.174637      0.719385     -0.265963
H      -2.366029      0.553807     -0.483340
H      -2.553857     -0.961258      0.269459
H       2.389527      1.570995     -0.641853
