10
Extracted from Q-Chem output
N      -1.888480      0.015935      0.128746
C      -0.556832     -0.241202      0.152603
N      -0.049145     -1.355705      0.614523
O       1.373562     -1.163359      0.520016
C       1.536234      0.021239      0.004010
O       2.529408      0.731163     -0.302688
N       0.395928      0.645746     -0.254042
H      -2.203451      0.674707     -0.560458
H      -2.487232     -0.777580      0.280056
H       1.366604      1.441581     -0.584932
