16
smiles: [C:1](/[C:2]([O:3][H:12])=[C:4](/[C:5]([H:14])([H:15])[H:16])[C:6]#[N:7])([H:8])([H:9])[H:10].[H:11][H:13]
C       -1.79801500      -0.04991000      -0.60018700
C       -0.40336700      -0.45538400      -0.25730700
O       -0.25775300      -1.70555500       0.24107300
C        0.69237300       0.30605600      -0.39946800
C        2.08393600      -0.13836700      -0.04294900
C        0.54310700       1.62484300      -0.92577100
N        0.45760700       2.69284800      -1.34615000
H       -1.83563400       0.95795500      -1.00561400
H       -2.42862900      -0.08743300       0.29254900
H       -2.21603300      -0.73630200      -1.34194800
H       -0.75558400       0.33026900       3.08794800
H       -1.11138100      -2.13964800       0.29082100
H       -0.37886700       0.34155000       2.44580000
H        2.53569500       0.54802400       0.67535000
H        2.72211900      -0.15596700      -0.92863200
H        2.06596900      -1.13481800       0.39201100
