16
Extracted from Q-Chem output
C      -1.840379      0.067558     -0.274091
C      -0.481699     -0.404857      0.149671
O      -0.237701     -1.725379      0.092344
C       0.673270      0.441603     -0.092882
C       2.058072     -0.122824      0.095516
C       0.465873      1.645174     -0.800747
N       0.294056      2.642488     -1.357386
H      -2.005630      1.104007      0.010961
H      -2.623389     -0.556797      0.156169
H      -1.876750      0.000037     -1.363979
H      -0.706564     -0.285816      1.695245
H      -1.020997     -2.219442      0.358980
H       0.001334      0.334408      1.208895
H       2.783175      0.686887      0.167679
H       2.361450     -0.783112     -0.720416
H       2.115162     -0.704263      1.020853
