14
Extracted from Q-Chem output
C       2.414805     -0.002966      0.011513
C       0.940316      0.128950     -0.034794
C      -0.064916     -0.743413      0.052081
C      -1.287139      0.067209     -0.032321
N      -2.546577     -0.444387     -0.397416
C      -0.900688      1.448503     -0.267058
O       0.454084      1.410696     -0.181328
H       2.858765      0.416743     -0.892665
H       2.699236     -1.050598      0.092552
H       2.822047      0.539962      0.866163
H       0.004814     -1.812527      0.168197
H      -2.939380     -1.085785      0.274044
H      -3.198457      0.298233     -0.606197
H      -1.322670      0.712446      0.984541
