10
Extracted from Q-Chem output
N       1.633286     -0.262102     -0.201081
C       2.648818     -0.365715     -0.760289
C       0.417039     -0.138525      0.481617
C      -0.839504     -0.593594     -0.197150
C      -0.581240      0.869046     -0.003111
H       0.516966     -0.297405      1.546705
H      -1.584805     -1.078661      0.418079
H      -0.734310     -0.995842     -1.195091
H      -1.146683      1.404522      0.747120
H      -0.302080      1.450590     -0.870675
