10
Extracted from Q-Chem output
N       2.046970      0.339070     -0.269682
C       1.843618     -0.827977     -0.235167
C       0.434555     -0.236976      0.448660
C      -0.802463     -0.563806     -0.329220
C      -0.500106      0.856605     -0.001230
H       0.489114     -0.455889      1.502950
H      -1.583215     -1.082039      0.212950
H      -0.661928     -0.888412     -1.350796
H      -1.063885      1.342048      0.784421
H      -0.175172      1.509687     -0.796763
