10
Extracted from Q-Chem output
O      -1.289464     -1.118935      0.855968
C      -0.158681     -0.512860      0.332168
C      -0.199959      0.955000     -0.000291
O       0.992313      1.393086     -0.608378
C       0.974003     -1.190051      0.298395
O       1.963024     -1.792535      0.253469
H      -1.851965     -1.410536      0.134007
H       1.045164      1.021230     -1.491486
H      -0.316280      1.544173      0.912639
H      -1.079262      1.153809     -0.628685
