10
Extracted from Q-Chem output
O      -1.238727     -1.286240      0.545554
C      -0.306980     -0.436442      0.019048
C      -0.179299      1.083419      0.111379
O       1.074787      0.981680     -0.576622
C       1.084954     -0.679148      0.171401
O       2.047280     -1.280324      0.376694
H      -1.868663     -1.523480     -0.137108
H       0.402127      0.022116     -1.139316
H      -0.046744      1.485960      1.116396
H      -0.919020      1.657867     -0.445364
