14
Extracted from Q-Chem output
C      -1.495850     -0.959922      0.343135
C      -0.076573     -0.529669      0.038506
C       0.201054      0.921504     -0.364137
O       1.118447      1.047822      0.806274
C       0.828129     -0.210571      1.218290
O       1.199457     -0.762999      2.200962
N       0.773454      1.147987     -1.624737
H      -1.980304     -0.264746      1.031010
H      -2.088071     -1.008105     -0.571830
H      -1.499418     -1.946536      0.807062
H       0.410442     -1.229998     -0.644316
H      -0.630390      1.607089     -0.200127
H       1.572549      0.558714     -1.810666
H       1.013804      2.114760     -1.784876
