17
Extracted from Q-Chem output
C      -1.202371     -1.112487      0.491939
C      -0.592419     -0.119431     -0.473533
C       0.901410     -0.281007     -0.713794
C       1.796261     -0.110211      0.510227
O       1.926635      1.227103      0.931100
C      -1.727615      2.028588     -0.352912
O      -0.820797      1.224608      0.078384
H      -1.021402     -2.130811      0.144514
H      -0.775019     -1.007796      1.489441
H      -2.279969     -0.960784      0.565093
H       1.219039      0.433170     -1.477927
H       1.052494     -1.282739     -1.127779
H       2.803738     -0.442938      0.254717
H       1.450550     -0.752155      1.331858
H       1.048560      1.600007      1.048324
H      -1.126910     -0.141234     -1.428921
H      -2.251281      1.502519     -1.200287
