11
Extracted from Q-Chem output
C      -1.665639     -0.301827     -0.100041
C      -0.414105      0.419762     -0.008592
N       0.929809     -1.169099      1.019834
N       1.731782     -0.611291      0.329253
N       1.484700      0.338326     -0.659819
C       0.498564      1.281379     -0.237273
H      -1.871372     -0.859380      0.812133
H      -2.483220      0.382240     -0.344317
H      -1.578652     -1.020222     -0.919864
H       2.743309     -0.801255      0.340764
H       0.638475      2.354017     -0.232727
