12
Extracted from Q-Chem output
O      -0.164310      1.640471     -0.565635
C       0.091019      0.432832      0.050654
C      -0.603265     -0.738247     -0.626137
C      -1.042964     -0.278161      0.728100
C       1.477388      0.511974      0.906528
C       1.889145     -0.206463     -0.023898
H       0.045117      2.330254      0.072316
H      -1.212965     -0.461846     -1.475943
H      -0.110277     -1.695754     -0.707326
H      -1.961710      0.289497      0.795150
H      -0.799752     -0.891113      1.585103
H       2.296418     -0.788850     -0.824051
