13
Extracted from Q-Chem output
C      -1.129309     -0.189059      1.026411
C      -0.196337     -0.885648      0.070683
N      -0.083335     -0.272286     -1.285211
C       1.097523     -0.358137     -0.368612
C       1.560691      0.938668     -0.002174
O       1.424211      1.953881     -0.677629
H      -1.014221      0.895193      0.970120
H      -0.883531     -0.494677      2.044522
H      -2.172785     -0.451345      0.839179
H      -0.351697     -1.962591      0.013158
H      -0.096310     -0.855047     -2.108147
H      -0.454099      0.665653     -1.415545
H       2.126103      0.971237      0.949283
