12
Extracted from Q-Chem output
N       2.233298     -0.186507      0.006301
C       0.881135     -0.031189     -0.016816
N       0.205919     -1.254297      0.154339
C      -1.085956     -1.216493      0.111927
C      -1.811504     -0.011856      0.409909
C      -1.060728      1.176876      0.050266
N       0.341285      1.106626     -0.249426
H       2.784104      0.591928     -0.307960
H       2.588879     -1.112399     -0.146373
H      -1.608152     -2.165154      0.003936
H      -1.241067      1.980511      0.775646
H      -1.639712      1.545204     -0.827651
