12
Extracted from Q-Chem output
N       2.215751     -0.166190      0.012400
C       0.861414     -0.032360     -0.037041
N       0.197023     -1.240107      0.222131
C      -1.093175     -1.233830      0.150368
C      -1.892851     -0.030264      0.216062
C      -1.089804      1.148292     -0.082933
N       0.310211      1.081610     -0.354717
H       2.758945      0.592415     -0.358451
H       2.585567     -1.096078     -0.063098
H      -1.585707     -2.204369      0.132005
H      -1.223588      1.680239      0.885566
H      -1.611653      1.838832     -0.756415
