15
Extracted from Q-Chem output
C       1.857230      0.298843      0.111260
C       0.385809      0.213579     -0.173879
C      -0.727280      0.518788      0.886260
C      -1.575415     -0.223631     -0.141697
O      -1.442002      0.707353     -1.289184
C      -0.173509      1.018755     -1.345188
C      -0.380579     -1.132427     -0.412020
H       2.135109     -0.314599      0.970650
H       2.432589     -0.037992     -0.752821
H       2.144686      1.331297      0.317688
H      -0.984291      1.557724      1.092277
H      -0.572186     -0.042022      1.807311
H      -2.610737     -0.529412     -0.028822
H      -0.321604     -1.605191     -1.392237
H      -0.191547     -1.850111      0.385688
