15
Extracted from Q-Chem output
C       1.864019      0.292980      0.203151
C       0.390065      0.175524     -0.022273
C      -0.729343      0.624776      0.917883
C      -1.621446     -0.192234     -0.025574
O      -1.570583      0.542036     -1.239627
C      -0.179730      0.325103     -1.449531
C      -0.375599     -1.070796     -0.360348
H       2.160920     -0.160555      1.151309
H       2.413988     -0.196012     -0.602731
H       2.161277      1.343188      0.216458
H      -0.955763      1.689576      0.996322
H      -0.635171      0.167822      1.903417
H      -2.618474     -0.541046      0.231449
H      -0.236042     -0.944160     -1.694426
H      -0.078095     -2.103603     -0.208845
