16
Extracted from Q-Chem output
C      -1.000597      0.984463     -0.643687
C      -0.566446      0.365269      0.526852
C      -1.103866     -0.981871      0.905834
O      -0.337999     -1.675139      1.847685
N       1.440456     -0.268171      0.203094
C       1.857658      0.216432     -0.930197
O       1.101155      0.264613     -1.950983
H      -0.993357      2.067725     -0.687235
H      -1.812418      0.496429     -1.179398
H       0.014088      0.589333     -1.448978
H      -0.175957      0.958218      1.345717
H      -2.086016     -0.807425      1.358946
H      -1.266692     -1.568914     -0.007030
H       0.528163     -1.779139      1.438785
H       2.105924     -0.082409      0.946062
H       2.862495      0.653821     -1.025738
