12
Extracted from Q-Chem output
O       1.938198     -0.931829      1.239705
C       1.184695      0.098114      0.949320
C      -0.195141     -0.405070      0.672962
C      -0.994140      0.509702     -0.252797
C      -0.427469      0.529081     -1.646464
O      -1.076889      0.425112     -2.649773
H       2.818396     -0.610548      1.463738
H       0.676006      0.657942     -1.698943
H      -0.209679     -1.451332      0.344675
H      -0.660975     -0.383360      1.669262
H      -0.929448      1.534667      0.128571
H      -2.045553      0.226159     -0.303580
