7
Extracted from Q-Chem output
O       0.720061      1.298578      0.032479
C       1.133737     -0.878735     -0.083979
N      -0.025012     -1.126025     -0.051868
C      -1.012212     -0.093234      0.033647
N      -0.517708      1.082542      0.069333
H       1.752135      0.059991     -0.064146
H      -2.061807     -0.321405      0.062672
