13
Extracted from Q-Chem output
N      -2.244242     -0.377092      0.098918
C      -0.895874     -0.048929      0.005878
C      -0.300873      1.196283      0.210790
C       1.076181      1.006777      0.216930
C       1.294577     -0.357413      0.030667
O       2.437871     -0.993226     -0.349276
N       0.018666     -1.026813     -0.150908
H      -2.485617     -1.205250     -0.421661
H      -2.866678      0.387105     -0.104546
H      -0.823433      2.123557      0.397196
H       1.847190      1.751978      0.333983
H       2.279382     -1.412342     -1.199458
H       0.681721     -1.044413      0.930358
