17
smiles: [C:1]([C:2](=[O:3])[H:12])([H:8])([H:9])[H:10].[C:4](=[C:5]([H:14])[H:16])([C:6](=[O:7])[H:17])[H:13].[H:11][H:15]
C        2.27197300      -0.90762600      -0.63744000
C        1.98572200       0.56229000      -0.57708300
O        0.91112100       1.05606600      -0.77996600
C       -2.13551900       0.27041800       0.73752600
C       -2.56210200       1.44255800       0.28616500
C       -1.45454200      -0.67864100      -0.16298200
O       -1.04562800      -1.75745600       0.17533200
H        3.05134500      -1.09565600      -1.38055700
H        2.66483900      -1.24255800       0.32609600
H        1.37238400      -1.46585900      -0.88950200
H        0.52138200      -0.86819700       2.17348300
H        2.85520200       1.20558400      -0.32388200
H       -2.26547300      -0.04218700       1.76789400
H       -3.06764600       2.15759200       0.92291700
H        0.93081500      -0.44883100       2.63268500
H       -2.41624000       1.72458600      -0.75215000
H       -1.33840400      -0.32499400      -1.20959300
