15
Extracted from Q-Chem output
O      -1.690589     -1.515082     -0.416084
C      -0.724827     -0.220630      0.951974
C      -0.418270      1.167681      0.501852
N       0.621666      1.175887     -0.492545
C       1.713498      0.257912     -0.182764
C       0.607801     -0.199819     -1.036021
H      -2.397837     -1.062408     -0.889094
H       0.072473     -0.890446      1.230943
H      -1.633435     -0.359793      1.526072
H      -1.312516      1.613115      0.057015
H      -0.191056      1.776338      1.395704
H       2.666885      0.542200     -0.615330
H       1.802569     -0.106886      0.842137
H      -0.805641     -1.172622     -0.809270
H       0.814511     -0.284297     -2.104108
