13
Extracted from Q-Chem output
C      -1.842672     -0.047507     -1.253491
O      -1.267696     -0.049283      0.036075
C       0.059114      0.157040      0.123288
N       0.885014      0.359051     -0.815824
N       0.420033      0.149849      1.472833
C       1.606593     -0.192241      1.739609
O       2.071074     -0.182426      2.981632
H      -2.905981     -0.221893     -1.108769
H      -1.428591     -0.845808     -1.876378
H      -1.700397      0.916794     -1.750097
H       0.458767      0.341483     -1.734067
H       1.358815      0.132887      3.554117
H       2.345219     -0.517510      1.008802
