14
Extracted from Q-Chem output
C      -0.715899     -1.086247      0.711738
C       0.060022      1.049612     -0.175534
C       1.233475      0.293380     -0.549774
O       1.163135     -1.021535      0.192528
C      -1.077722      1.116064     -1.018252
O      -2.173176      1.561755     -0.705624
H      -1.221543     -0.300578      1.251239
H      -0.413306     -1.938872      1.308605
H      -1.168872     -1.343738     -0.233344
H       0.073695      1.662811      0.719301
H       1.242316      0.000423     -1.599511
H       2.196305      0.726956     -0.276315
H       1.643801     -0.919831      1.023854
H      -0.943306      0.641047     -2.019750
