11
smiles: [C:1]([N:3]=[C:2]=[O:4])([H:7])([H:8])[H:9].[C:5](=[O:6])([H:10])[H:11]
C       -1.90900200      -0.32570400       0.68203700
C        0.40097800      -0.02282000       1.51595000
N       -0.77483500      -0.22101200       1.55375300
O        1.55169800       0.16049300       1.59456700
C        1.80053700       0.37424000      -1.59705600
O        0.62704400       0.17609200      -1.48058500
H       -2.35259500      -1.31684700       0.77650400
H       -1.63463100      -0.15942800      -0.36052100
H       -2.65907100       0.41059900       0.97012200
H        2.46833400       0.46724900      -0.71917600
H        2.28208300       0.47449800      -2.58873600
