16
Extracted from Q-Chem output
C      -0.630353     -1.094482      0.898595
C      -1.405135      0.004027      0.141371
C      -0.543032      0.747895     -0.877022
C       0.857475      0.978758     -0.324342
C       1.522249     -0.369717     -0.054963
C       0.764758     -1.437366      0.634512
H      -0.344687     -0.739635      1.921418
H      -1.244728     -1.970598      1.114052
H      -2.261693     -0.453019     -0.357908
H      -1.820230      0.716496      0.859607
H      -1.019617      1.688819     -1.159200
H       1.462155      1.568886     -1.017093
H       0.798785      1.555533      0.605839
H       2.516646     -0.280199      0.393264
H       1.733581     -0.888641     -1.008917
H      -0.462984      0.154019     -1.794508
