16
Extracted from Q-Chem output
C      -0.693144     -1.219352      0.700125
C      -1.322251      0.165982      0.497431
C      -0.532167      0.598119     -0.742353
C       0.880289      1.101756     -0.484393
C       1.491592     -0.215862      0.007797
C       0.370387     -1.186420     -0.410566
H      -0.227749     -1.361789      1.678246
H      -1.413272     -2.026858      0.557193
H      -2.390437      0.100421      0.288804
H      -1.197558      0.870444      1.324713
H      -1.096915      1.100358     -1.530293
H       1.339453      1.408728     -1.425224
H       0.930167      1.953016      0.200302
H       1.633714     -0.229013      1.092646
H       2.452170     -0.449638     -0.452469
H      -0.273961     -0.504504     -1.334101
