9
Extracted from Q-Chem output
O       2.274002      0.447902      0.398082
C       1.232485     -0.140106      0.347797
C      -0.084545      0.533426      0.118290
C      -0.914363     -0.007307     -0.981925
O      -1.126081     -0.242976      0.729351
H       1.163881     -1.245233      0.427404
H      -0.099410      1.595824      0.346319
H      -1.916945     -0.000235      0.015089
H      -0.521837     -0.975662     -1.319081
