10
Extracted from Q-Chem output
N       2.966482     -0.165649      0.852163
C       1.981251     -0.108286      0.271433
C       0.723087     -0.035587     -0.479984
N      -0.114027     -1.199366     -0.223598
C      -1.225576     -0.714789      0.161468
C      -1.165193      0.763102      0.203491
N      -0.017136      1.176523     -0.156650
H      -2.076379     -1.337906      0.411762
H      -1.963278      1.438068      0.490003
H       0.962680     -0.015382     -1.549507
