13
smiles: [C:1]([N:2]=[C:3]=[O:4])([H:7])([H:8])[H:9].[O:5]([C:6]([H:11])([H:12])[H:13])[H:10]
C       -1.83840600       0.14391100       0.15882100
N       -1.05513300      -0.83195300      -0.54253900
C       -1.15951900      -1.63732100      -1.41702400
O       -1.14644900      -2.45111600      -2.25451000
O        1.39765300       0.07377100       1.00210000
C        2.12374100       0.87903600       0.09803600
H       -1.20745200       0.64760100       0.88839700
H       -2.66804800      -0.33020800       0.68560800
H       -2.23587700       0.89114600      -0.52988400
H        0.84778600      -0.53051700       0.50285200
H        1.46780200       1.49176200      -0.53076700
H        2.78000100       0.28598800      -0.54898000
H        2.74517400       1.54623600       0.69425600
