16
Extracted from Q-Chem output
C       1.676678     -0.684568      0.834412
C       0.472152     -0.279964      0.040589
C       0.513409      0.781193     -1.027515
C      -0.338667      0.976258      0.177805
C      -1.705841      0.270937      0.141455
N      -1.747313     -0.746520     -0.880919
C      -0.755677     -1.242101      0.058040
H       1.380293     -1.032107      1.826120
H       2.377234      0.143891      0.956304
H       2.204399     -1.505375      0.342341
H       1.426683      1.361820     -1.030380
H       0.100956      0.646831     -2.022139
H      -0.139462      1.756309      0.899876
H      -2.653526      0.710180      0.438935
H      -1.349326     -0.413419     -1.749696
H      -1.522892     -0.590548      1.035379
