14
smiles: [C:1](=[C:2]([C:6]#[C:7][H:14])[H:11])([H:8])[H:9].[C:3](=[C:4]=[N:5][H:10])([H:12])[H:13]
C        0.54253200       1.78790200       1.41060100
C        0.86164200       0.58716500       0.94062700
C       -1.52596700      -2.22454700      -0.16781300
C       -1.73638600      -1.00089100      -0.56941900
N       -2.01411700       0.10337300      -1.00052200
C        1.56748800       0.37412300      -0.28302400
C        2.15961300       0.17113800      -1.30576600
H        0.00644200       1.89134200       2.34520600
H        0.80760300       2.69251400       0.87758400
H       -1.40769700       0.86106000      -0.70108100
H        0.58510700      -0.30542600       1.49274100
H       -0.88289700      -2.87713600      -0.74005200
H       -1.98755400      -2.58536300       0.73963700
H        2.68581600      -0.00083200      -2.21474700
