11
Extracted from Q-Chem output
C      -2.178882     -0.308092      0.256797
C       0.039904      0.173280     -0.530056
N      -1.037073     -0.326261     -0.629641
O       2.207967     -1.177215      0.676262
C       2.339509     -0.101285      0.141297
C       1.272804      0.664636     -0.490921
H      -2.410775     -1.335343      0.533729
H      -1.993613      0.282609      1.155253
H      -3.032544      0.097971     -0.284032
H       3.331531      0.389748      0.101426
H       1.471059      1.633416     -0.927954
