11
Extracted from Q-Chem output
C      -1.783042     -0.054814      0.096361
C      -0.184718     -0.263383      0.091189
N      -0.460496     -1.406601      0.455515
O       2.241546     -1.175494      0.261559
C       2.093435     -0.016202     -0.088794
C       0.812664      0.612397     -0.223648
H      -2.402315     -0.904217      0.381950
H      -1.923388      0.747118      0.816554
H      -1.996915      0.211094     -0.935785
H       2.970490      0.613110     -0.323837
H       0.642627      1.630455     -0.528904
