14
Extracted from Q-Chem output
O      -0.437427      1.775363     -0.941157
C      -0.175971      0.498262     -0.462438
C       1.123604     -0.209036     -0.822215
C       1.534103     -1.073472      0.355323
N       0.622549     -0.832553      1.266397
C      -1.358708     -0.359776     -0.178121
C      -0.458691      0.079247      0.949271
H       0.275115      2.357589     -0.667044
H       1.049671     -0.818436     -1.725784
H       1.929041      0.509517     -1.011864
H      -2.318880      0.136566     -0.234020
H      -1.345404     -1.401763     -0.474496
H       0.647340     -1.298810      2.159985
H      -0.812960      0.743668      1.725793
