14
Extracted from Q-Chem output
C      -2.025650     -0.082245     -0.371052
C      -0.541495      0.208523     -0.797092
C       0.324778      1.083982      0.035316
C       1.448698      0.667519      0.629111
N       2.010278     -0.585464      0.557667
C      -0.976345     -1.092239     -0.284006
O      -0.652750     -2.191696      0.055383
H       1.416018     -1.349679      0.272664
H      -2.764843     -0.157436     -1.159987
H      -2.375556      0.362490      0.553942
H      -0.413375      0.265795     -1.877259
H       0.047182      2.126500      0.129385
H       2.035380      1.384057      1.194668
H       2.653750     -0.827170      1.288545
