13
smiles: [C:1]([O:2][C:3]1=[C:4]([H:11])[C:5]1([H:12])[H:13])([H:6])([H:7])[H:8].[H:9][H:10]
C        1.80406600       0.24746800       0.58113500
O        0.97724500      -0.90126900       0.43127000
C       -0.32093500      -0.65485000       0.36406800
C       -1.51457000      -1.09533900       0.19008100
C       -1.35888700       0.39413800       0.49420600
H        1.49138200       0.84387600       1.44010500
H        1.77671200       0.86278500      -0.32062900
H        2.81421000      -0.12318200       0.73894600
H       -0.25145600      -0.03174600      -2.40236300
H       -0.07971800       0.48371600      -2.91145600
H       -2.22624900      -1.87544400       0.00042000
H       -1.50132900       1.12514700      -0.30379900
H       -1.63389500       0.77273500       1.48092500
