15
Extracted from Q-Chem output
C      -1.233453      1.162193     -0.515636
C      -0.665712     -0.153914     -0.968921
C       0.830612     -0.327779     -0.796815
C       1.250026     -0.190508      0.614598
N       1.989779      0.496659      1.343376
C       1.177386     -0.616382      1.994779
N      -1.316533     -1.108034     -1.482766
H      -1.062455      1.304324      0.554335
H      -0.733017      1.989095     -1.025072
H      -2.303692      1.221704     -0.710786
H       1.365934      0.420157     -1.388932
H       1.094335     -1.323014     -1.155966
H       0.352521     -0.306928      2.630194
H       1.729361     -1.487201      2.335022
H      -2.304797     -0.872576     -1.563256
