15
Extracted from Q-Chem output
C      -1.071379      1.088954     -0.322770
C      -0.328735     -0.234656     -0.406250
C       1.144078     -0.075542     -0.860874
C       1.565895      0.035563      0.580937
N       2.275478      0.332177      1.493962
C       0.225559     -0.612874      1.190292
N      -0.960197     -1.362417     -0.740688
H      -0.479886      1.858548      0.177039
H      -1.290248      1.431404     -1.336209
H      -2.014311      0.972702      0.214293
H       1.387520      0.759215     -1.518509
H       1.515295     -1.010692     -1.281592
H      -0.296295     -0.131124      2.015364
H       0.394450     -1.679175      1.321142
H      -1.965232     -1.247368     -0.609548
