17
Extracted from Q-Chem output
C      -0.998683     -0.319771      0.503894
C      -0.810123     -1.423485     -0.380190
O       1.283171     -1.582651     -0.292816
C       1.491403     -0.524496      0.453873
C       1.543022      0.799108     -0.286885
C       0.444015      1.509679     -0.494286
C      -0.932666      1.101097     -0.007103
H      -1.373487     -0.518278      1.501319
H      -2.002662     -1.017005     -0.208952
H      -0.872247     -2.436910     -0.014388
H      -0.650733     -1.247030     -1.432032
H       0.564431     -0.328688      1.161854
H       2.291127     -0.630290      1.207482
H       2.489295      1.131348     -0.701874
H       0.476148      2.436722     -1.058363
H      -1.636237      1.221318     -0.837476
H      -1.277134      1.785124      0.772930
