15
Extracted from Q-Chem output
C       1.766546     -1.087823     -0.373756
C       0.589439      1.164366     -0.563441
C       0.654168     -0.173925      0.110737
C      -0.773414     -0.700558     -0.146725
C      -1.584125      0.575733     -0.144048
O      -1.366567      1.336801      0.990579
C      -0.653796      1.772835     -0.196556
H       1.689638     -1.246832     -1.451132
H       1.726334     -2.060453      0.122999
H       2.742294     -0.643275     -0.175002
H       0.762381      0.006769      1.190516
H      -0.826678     -1.184450     -1.124234
H      -1.129559     -1.408896      0.604131
H      -2.570117      0.643972     -0.595081
H      -0.992836      2.729606     -0.570097
