17
Extracted from Q-Chem output
C      -1.310305     -0.811014      0.854355
C      -0.207908     -0.783988     -0.186093
C       0.169841      0.596137     -0.835122
C      -0.603327      1.851423     -0.467138
C       1.522722      0.410437     -0.204322
C       1.240264     -0.804367      0.338905
C       2.184312     -1.708727      0.845800
H      -2.284515     -0.597202      0.408559
H      -1.367233     -1.796569      1.320691
H      -1.131260     -0.082840      1.647634
H      -0.385090     -1.555158     -0.941281
H       0.215790      0.502394     -1.925433
H      -0.136469      2.734420     -0.907611
H      -1.628223      1.795309     -0.839418
H      -0.642911      1.998042      0.613046
H       2.454215      0.963730     -0.269983
H       1.852110     -2.737830      0.611297
