16
Extracted from Q-Chem output
C       2.107071      0.167536     -1.112729
N       1.257736     -0.808448     -0.457307
C       0.595059     -0.369102      0.719637
O      -0.210219      0.807371      0.591251
C      -1.374724      0.625349     -0.160238
C      -2.457091     -0.110335      0.605758
O      -3.379041     -0.670534      0.083407
H       2.623892     -0.306353     -1.947445
H       1.570959      1.048242     -1.485805
H       2.863868      0.513868     -0.405229
H       1.334716     -0.094393      1.473139
H      -1.767947      1.619190     -0.396397
H      -1.202767      0.113598     -1.114865
H      -0.013550     -1.196937      1.102871
H      -2.347987     -0.069824      1.710883
H       0.645179     -1.284305     -1.101467
