19
smiles: [C:1]([C:2]1([H:11])[C:3]([H:12])=[C:7]1[H:19])([H:8])([H:9])[H:10].[C:4](=[C:5]([C:6]([H:15])([H:17])[H:18])[H:16])([H:13])[H:14]
C       -2.10407100      -0.53909000       0.67165500
C       -2.00708100      -0.85818300      -0.80445900
C       -0.69380000      -0.86692200      -1.52799700
C        2.00411800       2.10832100      -0.60992500
C        1.34976900       1.31527600       0.22410200
C        1.93899800       0.13338700       0.92583700
C       -1.21328400      -2.02476100      -1.31215000
H       -2.23595900       0.53382600       0.83560500
H       -2.95599300      -1.04806400       1.13032900
H       -1.19944300      -0.85329200       1.19669700
H       -2.89406100      -0.56504800      -1.36985300
H        0.11322500      -0.27388200      -1.92183600
H        3.05063500       1.94210800      -0.84494800
H        1.52103500       2.95188700      -1.08774900
H        1.85990800       0.24498800       2.01043300
H        0.30165300       1.52141900       0.42934600
H        1.40466900      -0.78297300       0.66183400
H        2.99150100       0.00165700       0.67097500
H       -1.15504200      -3.09602700      -1.39760200
