18
smiles: [C+:1]([N:2]([C:3]([O-:4])=[C:5]([C:6]([H:13])([H:14])[H:15])[C:7]([H:16])([H:17])[H:18])[H:11])([H:9])[H:10].[H:8][H:12]
C        2.79167600      -0.27303800       0.11565300
N        1.55007000      -0.48663300      -0.07388300
C        0.53679400       0.34924300       0.62450000
O        1.03774300       1.21779900       1.35461600
C       -0.75222000       0.00342500       0.32963100
C       -1.23021400      -1.09584900      -0.57393700
C       -1.84149400       0.79226900       0.98862500
H        0.23480600       1.37145800      -2.76304100
H        3.53398000      -0.87489400      -0.39083700
H        3.02487700       0.53413800       0.80266900
H        1.24261000      -1.21884700      -0.69731400
H        0.07644400       1.25650900      -2.04458400
H       -1.82757800      -1.82329400      -0.01267300
H       -0.45950700      -1.66862700      -1.09449700
H       -1.88798000      -0.69380100      -1.35237300
H       -2.48903600       1.27081400       0.24501200
H       -2.48481700       0.14721100       1.59805000
H       -1.42085300       1.56491500       1.62915300
