18
Extracted from Q-Chem output
C       2.386003      0.159993     -0.542582
N       1.540238     -0.663710      0.052459
C       0.560735      0.000204      0.890454
O       0.968614      0.774936      1.739100
C      -0.690014     -0.030028      0.233308
C      -1.262179     -1.231679     -0.476064
C      -1.719617      0.960797      0.699946
H       1.067311      1.113716     -1.239183
H       2.936602     -0.187933     -1.406619
H       2.763847      0.989420      0.037095
H       1.195552     -1.422633     -0.514025
H       0.277571      0.919415     -0.921913
H      -2.071415     -1.661220      0.124426
H      -0.558122     -2.044832     -0.661420
H      -1.700791     -0.953754     -1.438384
H      -2.432695      1.186188     -0.097099
H      -2.290953      0.554509      1.542819
H      -1.255624      1.885621      1.037579
