16
smiles: [C:1](=[C:2]([C@@:4]([C:5]([H:14])([H:15])[H:16])([C:6]#[N:7])[H:13])[H:11])([H:8])[H:9].[O:3]([H:10])[H:12]
C       -1.51635800      -0.08786000      -0.98390500
C       -1.00694400       0.57905100       0.03690800
O       -0.14321900      -2.27566800       1.20391600
C        0.46755400       0.72768300       0.34238200
C        1.41381100       0.08969900      -0.67311000
C        0.78417500       2.15352500       0.51160400
N        1.03163500       3.26643900       0.63871900
H       -0.89992400      -0.58890300      -1.72041900
H       -2.58842000      -0.15484700      -1.11906400
H       -0.89760500      -1.86073300       0.78385500
H       -1.66962200       1.07070900       0.74274800
H       -0.50743800      -2.97358000       1.74982300
H        0.64465700       0.26973500       1.32279100
H        2.44977900       0.23689900      -0.37011700
H        1.28209800       0.53214900      -1.66100100
H        1.22398000      -0.98173500      -0.74028700
