13
Extracted from Q-Chem output
N       3.073096     -0.026292      1.299229
C       2.250491      0.047301      0.503551
C       1.181117      0.098982     -0.490901
C      -0.045625      0.874207     -0.036383
C      -1.183614     -0.403375      0.718843
C      -1.267139      0.311732     -0.631266
H       1.001277     -0.921185     -0.860822
H       1.542157      0.680777     -1.346410
H      -0.332838      0.177326      1.273088
H      -2.010619     -0.178481      1.383823
H      -0.911758     -1.451863      0.658157
H      -1.173729     -0.371222     -1.476481
H      -2.116001      0.979681     -0.731575
