17
smiles: [C:1](/[C:2](=[C:3](/[C:5]([C:6](=[O:7])[H:17])([H:15])[H:16])[H:13])[H:12])([H:8])([H:9])[H:10].[O:4]([H:11])[H:14]
C       -2.39588100      -0.22654300      -0.38635000
C       -1.19968100       0.65596700      -0.22925300
C       -0.08806900       0.32147100       0.40843200
O        0.49096600      -2.60962300      -0.94965200
C        1.09887800       1.21713400       0.55499900
C        2.39922400       0.61919800       0.08027200
O        2.53411200      -0.49689600      -0.33657900
H       -2.60833500      -0.40914500      -1.44290000
H       -2.24679700      -1.19026900       0.10204500
H       -3.28710900       0.23987600       0.04138100
H       -0.12382100      -2.13200300      -1.50798800
H       -1.26480000       1.64258800      -0.68573800
H       -0.00245900      -0.66568100       0.85441400
H        1.20321900      -1.99442900      -0.77106300
H        1.26436100       1.49328500       1.60589200
H        0.95759900       2.16603500       0.02629500
H        3.27372800       1.30065800       0.15343800
