17
Extracted from Q-Chem output
C      -2.491116     -0.289109     -0.123872
C      -1.144950      0.190225     -0.618191
C      -0.004572      0.119340      0.203536
O       0.584840     -1.530798     -0.709328
C       1.180750      1.002642      0.019433
C       2.463679      0.308346      0.407267
O       3.471134      0.361740     -0.237844
H      -3.136920     -0.560353     -0.960093
H      -2.382995     -1.177724      0.501343
H      -3.014859      0.472856      0.459712
H      -0.449337     -0.815872     -1.139240
H      -1.149914      1.001553     -1.342811
H      -0.069912     -0.401058      1.153963
H       1.418431     -1.687585     -1.169802
H       1.051859      1.871402      0.679257
H       1.257438      1.367237     -1.005106
H       2.418112     -0.276820      1.348656
