18
Extracted from Q-Chem output
C       2.306601     -1.306165     -0.719894
C       1.499734     -0.782235      0.494937
C       0.701038      0.300969     -0.106603
C      -1.899773      1.900988      0.356460
C      -1.560925      0.433030      0.571665
C      -0.632902     -0.159185     -0.532272
H       1.652403     -1.742294     -1.476387
H       2.996152     -2.078747     -0.381128
H       2.881748     -0.504498     -1.183284
H       0.917726     -1.617561      0.913488
H       2.207124     -0.414472      1.240209
H      -2.530532      2.275281      1.165057
H      -2.442223      2.039226     -0.581435
H      -0.994882      2.506675      0.315177
H      -1.104060      0.295088      1.557355
H      -2.470573     -0.171228      0.579036
H      -0.936215      0.279771     -1.485800
H      -0.768038     -1.251788     -0.571058
