18
Extracted from Q-Chem output
C       2.083272     -0.972958     -0.525790
C       1.082754     -0.253739      0.378931
C       0.000764      0.330625     -0.504871
C      -0.870694      1.669002      0.531673
C      -1.629463      0.010887      0.297068
C      -1.030573     -0.680351     -0.864291
H       1.619429     -1.815645     -1.042845
H       2.921579     -1.360651      0.055252
H       2.473582     -0.291764     -1.283553
H       0.721407     -0.964415      1.140615
H       1.603933      0.544498      0.917077
H      -1.449473      1.766120      1.463049
H      -1.285590      2.342588     -0.210729
H       0.127913      2.001920      0.801035
H      -1.545667     -0.500144      1.247792
H      -2.597323      0.463706      0.125253
H      -1.535846     -0.558300     -1.818855
H      -0.771449     -1.717783     -0.660968
