7
Extracted from Q-Chem output
O       1.568372     -0.041920     -0.329937
N       1.356155      1.111432     -0.231137
C      -0.938371      0.628649     -0.228871
C      -0.972252     -0.578521     -0.327576
N       1.290260     -1.182004     -0.418544
H      -1.125950      1.672964     -0.138463
H      -1.218255     -1.611413     -0.408583
