17
smiles: [C:1]([C:2](=[C:6]([H:16])[H:17])[O:7][H:14])([H:8])([H:9])[H:10].[C:3](=[C:4]([O:5][H:15])[H:13])([H:11])[H:12]
C       -1.57996100      -1.24945100       0.64240000
C       -1.38296600       0.20769500       0.36690500
C        1.89304200      -0.32248900      -1.14652900
C        2.63649700       0.34532200      -0.27630300
O        2.21166300       1.28142900       0.60328600
C       -1.95863500       0.87799100      -0.62225700
O       -0.54156600       0.85663200       1.22383400
H       -2.25366500      -1.69651400      -0.08531300
H       -0.62529300      -1.78220500       0.59993400
H       -2.00391000      -1.39807900       1.64003900
H        0.82327800      -0.16591700      -1.23325800
H        2.35197800      -1.04965200      -1.79981600
H        3.70582400       0.19238300      -0.18657000
H       -0.20654200       0.24179300       1.87795300
H        1.26260500       1.40051700       0.51007800
H       -2.62604200       0.37324000      -1.30464000
H       -1.77059000       1.93388900      -0.76133200
