17
Extracted from Q-Chem output
C      -1.097121     -1.455846      0.338415
C      -0.703179     -0.021567      0.013845
C       0.824350     -0.074396     -0.717746
C       1.726991      0.234138      0.370888
O       2.500297      1.378576      0.338239
C      -1.723407      0.777106     -0.537539
O      -0.483738      0.765533      1.147047
H      -1.285006     -2.020937     -0.577785
H      -0.295394     -1.949928      0.889555
H      -1.993961     -1.471441      0.958494
H       0.849083      0.662991     -1.519611
H       0.924338     -1.072880     -1.135389
H       2.258845     -0.567808      0.871164
H       0.659570      0.568040      1.253550
H       2.050792      2.046424     -0.184747
H      -2.697316      0.385029     -0.811634
H      -1.537260      1.831750     -0.684045
