14
Extracted from Q-Chem output
O      -2.097041      0.931051     -0.418468
C      -1.157651      1.354488      0.189744
N      -0.283852      0.359813      0.979996
C      -0.431582     -1.120267      0.819339
C       0.980891     -1.219747      0.197900
C       0.872939      0.284390     -0.013157
C       0.789551      1.275847     -0.865587
H      -1.033526      2.363265      0.585690
H      -0.069761      0.663182      1.926294
H      -1.239160     -1.300455      0.112041
H      -0.617176     -1.630054      1.762483
H       1.736110     -1.526952      0.924880
H       1.075649     -1.818154     -0.705520
H       1.361897      1.250054     -1.791759
