12
Extracted from Q-Chem output
C      -1.376576     -0.402179     -0.468750
C      -0.258575     -0.165273      0.498080
O       1.015375     -0.908067      0.127448
C       1.673648      0.493118     -0.080437
C       0.543994      1.148762      0.412659
O       0.181467      2.277684      0.680213
H      -2.179733      0.289722     -0.208703
H      -1.064952     -0.166618     -1.488942
H      -1.773608     -1.418336     -0.419504
H      -0.481923     -0.477546      1.517055
H       0.908875     -1.320282     -0.738785
H       2.732223      0.495961      0.124582
