12
smiles: [N:1](=[C:2]1\[O:3][C:4]1([H:10])[H:11])\[H:9].[O:5]=[C:6]([O:7][H:8])[H:12]
N       -1.12774500      -1.08930400       0.03270500
C       -0.96004300      -0.20935800       0.89503700
O       -1.43651200       0.22940000       2.06632600
C       -0.29664900       0.93844400       1.42921900
O        1.44428000       0.80553700      -0.89360600
C        1.47298500       0.08840200      -1.84794300
O        0.63722300      -0.93194800      -2.06412500
H        0.02486200      -0.97040500      -1.31663100
H       -1.89406700      -1.71125200       0.28031600
H       -0.54218800       1.93070700       1.06754000
H        0.64234700       0.83205800       1.96083900
H        2.18877000       0.16933400      -2.67636200
