15
Extracted from Q-Chem output
C      -1.087423      0.850758     -1.316605
C      -0.819966     -0.401164     -0.506749
O      -0.101190     -1.306262     -1.313990
C      -0.055293     -0.083368      0.759888
O       0.645735     -1.189789      1.352759
C       1.397596     -0.105254      0.843187
O       2.124721      0.636183      1.734929
H      -1.667254      0.603015     -2.205447
H      -1.648752      1.580692     -0.730402
H      -0.145881      1.302476     -1.633248
H      -1.778162     -0.851172     -0.205918
H       0.169369     -2.039974     -0.753036
H      -0.596932      0.533449      1.477387
H       1.595884      0.796234      2.521063
H       1.995321     -0.326341     -0.034022
