15
Extracted from Q-Chem output
C      -1.016973      0.754097     -1.342779
C      -0.752093     -0.438991     -0.450177
O       0.075942     -1.355243     -1.133933
C      -0.071166     -0.099139      0.877899
O       0.359090     -1.212033      1.555232
C       1.301972      0.423853      0.673766
O       2.079822      0.489000      1.679793
H      -1.524802      0.433183     -2.252205
H      -1.650677      1.483701     -0.834597
H      -0.089055      1.245882     -1.645294
H      -1.705608     -0.916114     -0.185244
H       0.360150     -1.979401     -0.449278
H      -0.703988      0.605316      1.455294
H       1.572790     -0.091665      2.330350
H       1.765577      0.663388     -0.283544
