14
Extracted from Q-Chem output
O       1.631762      1.879207      0.512265
C       0.762897      1.014781      0.122080
C       1.395317     -0.247896     -0.120263
C       0.481074     -1.396108     -0.023086
C      -0.839713     -1.222209     -0.021591
C      -1.475452      0.135792     -0.186712
N      -0.541547      1.212989      0.143162
H       2.232770      0.775146      0.602740
H       2.049022     -0.230975     -0.992110
H       0.891028     -2.397334      0.054671
H      -1.520576     -2.060791      0.064434
H      -2.337170      0.234217      0.476939
H      -1.849539      0.262839     -1.210538
H      -0.886817      2.061425      0.559773
