16
Extracted from Q-Chem output
C      -0.911528     -0.835643      0.656194
C      -0.205659      0.244570     -0.053529
C      -0.470222      0.376684     -1.433675
C       1.213066      0.528060      0.423869
O       2.020374     -0.563123      0.048807
C      -1.204745      0.975824      0.925968
N      -1.778296      1.788888      1.516218
H      -0.357674     -1.896860     -0.762771
H      -0.541036     -1.196142      1.606800
H      -1.916725     -1.095525      0.356021
H      -1.461515      0.148622     -1.806240
H      -0.181036     -1.391114     -1.399919
H       0.108696      1.080437     -2.018875
H       1.551146      1.461880     -0.038812
H       1.211999      0.667004      1.510900
H       2.901985     -0.428721      0.398545
