13
Extracted from Q-Chem output
O       1.996242     -1.401180     -0.840488
C       1.536769     -0.279000     -0.943500
C       0.257367      0.136877     -0.445781
C      -0.860753     -0.337042      1.335426
C      -0.689693     -0.961042      0.073228
C      -0.173514      1.472467     -0.364602
O      -1.024347      1.858371      0.439627
H       2.110427      0.515578     -1.459338
H      -1.798067      0.072065      1.681259
H      -0.018375     -0.302121      2.015338
H      -1.588399     -1.110511     -0.518878
H      -0.030047     -1.836412      0.080379
H       0.266842      2.190780     -1.074861
