14
Extracted from Q-Chem output
C       2.352556      0.282327     -0.387016
C       1.010351      0.369292     -1.056203
C      -0.062654     -0.249054     -0.652452
C      -1.138668     -0.844712     -0.226883
C      -2.102217     -0.235716      0.758289
O      -1.794475      1.083768      1.124890
H       2.697600      1.273232     -0.082329
H       2.313586     -0.356599      0.494627
H       3.099080     -0.122143     -1.074422
H       0.938895      0.983900     -1.950619
H      -1.368536     -1.849194     -0.572828
H      -3.103107     -0.216231      0.318140
H      -2.154290     -0.887730      1.642379
H      -0.838816      1.169481      1.175944
