14
Extracted from Q-Chem output
C       1.984209      0.458936     -0.554448
C       0.898406     -0.545895     -0.327525
C       0.380235     -1.220393      0.686869
C      -0.756548     -0.806073     -0.181196
C      -1.742319      0.185170      0.395535
O      -1.188729      0.964454      1.413120
H       1.604684      1.472677     -0.412172
H       2.754238      0.274559      0.194430
H       2.422773      0.384263     -1.549824
H       0.065533     -0.341271     -1.232971
H      -1.160324     -1.508220     -0.909051
H      -2.133028      0.859427     -0.369194
H      -2.584244     -0.427048      0.755534
H      -0.600198      0.392626      1.924320
