12
smiles: [C:3]1([H:8])([H:9])[C:4]([H:7])([H:10])[O:5][C:6]1([H:11])[H:12].[O+:1]#[C-:2]
O        3.08199400      -0.03598400       1.30712700
C        2.44551300      -0.96090800       1.26902700
C       -0.79385400      -0.12126100      -1.03997400
C       -0.94104100      -0.67756200       0.38203100
O       -0.26818200       0.45746600       0.94564200
C       -0.09685900       1.05637900      -0.34704500
H       -0.40519000      -1.60864400       0.58693700
H       -0.16332500      -0.70912600      -1.70391500
H       -1.72629600       0.12024800      -1.54610100
H       -1.96578800      -0.76579600       0.75414800
H        0.95985700       1.19668200      -0.59137000
H       -0.61055100       2.01944300      -0.41688000
