12
Extracted from Q-Chem output
O       2.335932     -1.466345      0.556385
C       1.462546     -0.705157      0.672752
C       0.198725     -0.031716     -0.663650
C      -0.848284     -0.601725      0.248725
O      -1.239022      0.655758      0.714883
C      -0.269922      1.323083     -0.140227
H       0.364644     -0.929721      1.296884
H       0.713221     -0.332549     -1.567498
H      -0.986063     -0.328194     -1.125240
H      -1.533009     -1.442512      0.233800
H       0.459552      1.882241      0.440326
H      -0.780094      1.979981     -0.851418
