12
Extracted from Q-Chem output
N      -1.737245     -0.622528      0.076314
C      -0.669201      0.119223      0.542891
O       0.502889     -0.596326      0.685958
C      -0.671595      1.372737      0.980462
O       2.329830      0.593327     -0.781894
C       1.847801     -0.414147     -1.174451
O       0.876258     -1.151655     -0.583516
H      -2.405642     -0.115172     -0.476143
H      -1.497194     -1.518612     -0.310722
H      -1.596631      1.922768      1.079530
H       0.261292      1.836477      1.259557
H       2.104012     -0.947718     -2.103269
