12
Extracted from Q-Chem output
C       1.450579     -0.327461     -0.227363
C       0.521162     -1.260453     -0.012145
C      -0.644752     -0.541545      0.622984
C      -1.227616      0.551689     -0.239937
C      -0.235428      1.419673     -0.447156
C       0.859980      0.877908      0.365172
H       2.404732     -0.373107     -0.730737
H       0.564424     -2.321769     -0.208014
H      -1.328995     -1.126500      1.234820
H      -2.252668      0.597365     -0.577310
H      -0.177694      2.302314     -1.066460
H      -0.016744      0.160240      1.387817
