14
smiles: [C:1]1([H:7])=[C:2]([H:10])[O:3][C:4]([H:11])([H:12])[C:5]([H:13])([H:14])[O:6]1.[H:8][H:9]
C       -0.70660400      -0.77016900       1.45782700
C       -1.34200400       0.16274400       0.75481300
O       -0.73442000       0.96351500      -0.16811400
C        0.67650800       0.91319900      -0.06350500
C        1.14353000      -0.52038600       0.10740600
O        0.61418900      -1.07359900       1.29816200
H       -1.20174700      -1.36356200       2.21188800
H       -0.78600000       0.20320300      -2.64814600
H       -0.50709100      -0.07491300      -3.28001300
H       -2.39783200       0.35678500       0.87138700
H        0.99911400       1.51067700       0.79689000
H        1.08181700       1.35061100      -0.97577000
H        2.22946900      -0.57256100       0.18534300
H        0.81479400      -1.11908600      -0.74982400
