14
Extracted from Q-Chem output
C      -0.800415     -1.122172     -0.159240
C      -1.344982      0.292851     -0.176905
O      -0.363657      1.198707     -0.637659
C       0.800464      1.122195      0.159368
C       1.345025     -0.292823      0.176803
O       0.363726     -1.198620      0.637744
H      -1.527243     -1.814472      0.268346
H      -0.571742     -1.440010     -1.186829
H      -2.197196      0.373641     -0.853365
H      -1.669240      0.575773      0.835012
H       0.571697      1.439798      1.187011
H       1.527235      1.814622     -0.268089
H       2.197389     -0.373770      0.853036
H       1.668937     -0.575720     -0.835233
