14
Extracted from Q-Chem output
C      -0.889017     -0.894737      0.174621
C      -1.337771      0.442459      0.037957
O      -0.379652      1.375496     -0.350546
C       0.856143      1.138849      0.290719
C       1.330621     -0.271925      0.004848
O       0.373162     -1.239435      0.445940
H      -1.616939     -1.619243      0.517719
H      -0.854641     -1.447782     -1.402008
H      -1.376954     -0.502223     -1.053222
H      -2.206158      0.797678      0.575956
H       0.753552      1.291105      1.372116
H       1.575981      1.856627     -0.105503
H       2.259267     -0.505939      0.522423
H       1.462778     -0.413975     -1.073811
