16
Extracted from Q-Chem output
C       2.489260      0.357656      0.111360
O       1.117592      0.658924      0.164784
C       0.311961     -0.483606      0.227011
C      -1.142275     -0.022720      0.275205
C      -1.562538      0.731377     -0.977529
C      -2.631163     -2.115362      0.618169
N      -1.969552     -1.169310      0.475127
H       3.027846      1.302411      0.062580
H       2.732502     -0.240592     -0.775607
H       2.812402     -0.192439      1.003977
H       0.538980     -1.078668      1.121900
H       0.465431     -1.126197     -0.652719
H      -1.262075      0.620951      1.150231
H      -2.596201      1.066228     -0.895532
H      -0.916306      1.597806     -1.108320
H      -1.474427      0.089127     -1.855422
