14
Extracted from Q-Chem output
O       1.818065     -0.640383      0.419030
C       1.336270      0.150337     -0.585356
C       0.041465      0.664434      0.010727
O       0.200085      1.314468      1.147253
C      -0.847555     -0.921126      0.315844
C      -1.287193      0.395618     -0.444266
H       0.406291     -1.023896      0.578452
H       1.123497     -0.364029     -1.540619
H       1.967630      1.024021     -0.815456
H       1.067609      0.993647      1.477487
H      -1.362575     -0.994300      1.267069
H      -0.963715     -1.778699     -0.340411
H      -1.407009      0.234282     -1.508258
H      -2.093754      0.953549      0.017961
