13
Extracted from Q-Chem output
C      -1.869407     -0.332840     -0.177652
C      -0.426958      0.492303     -0.887227
O      -0.730765     -0.643587     -1.423420
C       0.982125      0.478599     -0.261337
O       1.328156      1.706613      0.281883
C       1.139714     -0.634450      0.740256
O       1.504110     -0.421384      1.867699
H      -1.569686      0.050165      0.805115
H      -2.699508      0.201395     -0.612560
H      -2.024317     -1.409902     -0.079709
H       1.623274      0.217570     -1.121950
H       1.632489      1.535348      1.183149
H       0.880909     -1.648615      0.391319
