10
Extracted from Q-Chem output
O       2.609051     -0.857201      0.504332
C       0.556978     -0.125189     -0.474823
C       1.487661     -1.017477     -0.266891
N      -2.279756     -0.025682      0.087205
C      -1.454171      0.915021     -0.038864
N      -0.249940      0.756446     -0.752645
H       2.694267      0.060665      0.770640
H       1.391488     -2.001244     -0.703212
H      -3.112999      0.294254      0.572910
H      -1.598802      1.942319      0.303233
