10
Extracted from Q-Chem output
O       2.212809     -0.394237     -0.086467
C       0.893872     -0.127622     -0.036570
C      -0.123032     -1.029268      0.082004
N      -1.263164     -0.249645      0.084859
C      -0.880496      1.035524     -0.028570
N       0.424957      1.145284     -0.104483
H       2.662930      0.450464     -0.175952
H      -0.139887     -2.101356      0.159863
H      -2.206042     -0.584090      0.157900
H      -1.581947      1.854946     -0.052585
