10
Extracted from Q-Chem output
O       2.188333     -0.409585     -0.429433
C       0.690628     -0.158389     -0.119598
C       1.036001     -1.417818      0.198375
N      -1.955441      0.014359      0.178243
C      -1.218993      1.034945      0.045771
N       0.152026      0.959415     -0.207424
H       2.711148     -0.131848      0.332205
H       0.906318     -2.265363     -0.460853
H      -2.916874      0.287445      0.357761
H      -1.573413      2.065359      0.105308
