13
Extracted from Q-Chem output
C       2.240448      0.168246      0.499811
N       0.988316     -0.468792      0.177648
C      -0.192677     -0.150736      0.583991
C      -1.290657     -0.816117     -0.046753
C      -2.014409      0.476599      0.392913
O      -0.768276      0.939085      1.098076
H       2.070763      1.107721      1.032050
H       2.790751      0.382836     -0.417406
H       2.860113     -0.479782      1.123099
H      -1.657243     -1.743205      0.381674
H       0.116795     -1.012391     -0.680331
H      -2.246425      1.214231     -0.374358
H      -2.825295      0.375171      1.112340
