12
Extracted from Q-Chem output
C       1.580528     -0.141201      0.402241
C       0.174739      0.279769      0.120389
C      -1.502763     -0.698855     -0.547296
N      -0.879305     -0.456774      0.614175
C      -0.087367      1.517511     -0.525219
N      -0.237590      2.555089     -1.010339
H       1.868203     -1.007656     -0.201866
H       1.672118     -0.438203      1.452254
H       2.286392      0.661987      0.196145
H      -2.544794     -0.434631     -0.713107
H      -0.975125     -1.267479     -1.297858
H      -1.259395     -0.453494      1.549055
