16
smiles: [C:1]([H:8])([H:9])([H:10])[H:11].[C:2]1(=[O:3])[C:4]([H:12])([H:13])[N:5]2[C:6]([H:14])([H:15])[C@@:7]12[H:16]
C        2.01974500      -1.73192000       0.08590600
C        0.13108600       1.41297600       0.02218300
O        1.18922200       1.93004000       0.20268200
C       -0.61289500       0.88095100      -1.20753300
N       -1.87695700       0.84393600      -0.40903500
C       -1.63355400      -0.11859600       0.64122800
C       -1.11799400       1.26137000       0.82881900
H        1.34771800      -2.17071700      -0.65002500
H        1.54445000      -1.74718300       1.06551100
H        2.94445600      -2.30592100       0.12126600
H        2.24211000      -0.70304900      -0.19314100
H       -0.31331200      -0.07779200      -1.63314300
H       -0.66393100       1.63841000      -1.98983600
H       -0.93801600      -0.93321400       0.46248700
H       -2.51331600      -0.38214700       1.21502900
H       -1.50682400       1.94255700       1.57399500
