15
Extracted from Q-Chem output
C       2.603202      0.479084      1.289855
C       1.645638      0.552290      0.146915
C      -1.655724     -1.296403     -1.115850
C      -1.524146     -0.360681     -0.183513
O      -2.188143     -0.334625      0.999425
C      -0.618045      0.818261     -0.328462
O       0.455237      0.738717      0.630869
H       2.156552      0.597722      2.281685
H       3.375274      1.235078      1.122065
H       3.120146     -0.482269      1.217574
H      -1.070009     -1.248208     -2.021572
H      -2.337551     -2.130603     -0.996861
H      -2.720368     -1.128993      1.088388
H      -0.178607      0.857638     -1.322838
H      -1.160541      1.737799     -0.103256
