15
Extracted from Q-Chem output
C       2.012028     -0.022539      0.887712
C       0.577423      0.371539      0.849503
C      -0.493171     -1.014060     -0.876179
C      -1.071864     -0.220593      0.084216
O      -1.984766     -0.676129      0.976751
C      -1.053360      1.289513     -0.086281
O       0.356976      1.487125      0.139592
H       2.590055      0.289613      0.013729
H       2.096041     -1.098845      1.034464
H       2.432930      0.459988      1.776103
H       0.002478     -0.571162     -1.727012
H      -0.431488     -2.086997     -0.745105
H      -2.114813     -1.616302      0.830207
H      -1.313068      1.637014     -1.085703
H      -1.645031      1.794849      0.677446
