13
Extracted from Q-Chem output
C      -1.665651     -0.150896     -0.114008
N      -0.282279     -0.010633      0.257429
C       0.511743      1.092662      0.153162
C       1.663256      0.173213      0.562030
O       2.751657      0.281071      1.014831
C       0.701726     -0.950311      0.188589
H      -1.733423     -0.207534     -1.204698
H      -2.072884     -1.062136      0.320554
H      -2.231383      0.707905      0.241371
H       1.058099      0.536481     -1.409674
H       0.221389      2.111108      0.358924
H       0.600918     -2.000967      0.415394
H       1.142889     -0.341294     -1.401839
