17
Extracted from Q-Chem output
C       1.892934      1.115412     -0.181025
O       0.525383      0.908860      0.064942
C       0.006121     -0.318176     -0.404093
C       0.480181     -1.539433      0.396945
O      -0.217355     -1.681960      1.612499
C      -1.447648     -0.372967     -0.581273
C      -2.134916      0.897687     -0.414183
H       2.530889      0.467451      0.430012
H       2.137341      0.952231     -1.239143
H       2.112370      2.151668      0.073070
H       0.311936     -0.484018     -1.463394
H       1.534437     -1.438497      0.656366
H       0.367345     -2.425661     -0.235484
H      -1.119313     -1.931992      1.389951
H      -1.566927      1.807060     -0.631238
H      -3.148095      0.917823     -0.811789
H      -2.221668      0.871931      0.693301
