13
Extracted from Q-Chem output
C      -1.737970     -0.411405     -0.011153
N      -0.344977     -0.346312      0.384656
C       0.221134      0.971024      0.562504
C       0.581597      0.139541     -0.614972
C       2.747223     -0.784891     -1.651148
C       1.885180     -0.547429     -0.721816
H      -1.920653     -1.354843     -0.526824
H      -2.034767      0.414594     -0.674210
H      -2.363248     -0.380072      0.882015
H      -0.415284      1.831694      0.373818
H       0.920942      1.085039      1.382010
H       0.162963      0.455025     -1.565936
H       2.323482     -1.021510      0.171558
