12
Extracted from Q-Chem output
O       0.010741      1.608234     -0.991673
C       0.067445      0.466722     -0.247614
C      -0.817402     -0.694395     -0.498303
C      -0.998141      0.186852      0.726265
C       1.717180     -0.777726      0.886382
O       1.445653      0.220517      0.121472
H       0.341417      1.424110     -1.875016
H      -0.394026     -1.675479     -0.321485
H      -1.534219     -0.605230     -1.303664
H      -0.682604     -0.243311      1.668553
H      -1.831879      0.874530      0.750370
H       2.821529     -0.712556      0.988699
