17
Extracted from Q-Chem output
C      -2.328132     -0.651574     -0.383472
C      -1.208361      0.341028     -0.661141
C       0.118441     -0.063780     -0.039460
O       0.495698     -1.303747     -0.618382
C       1.190488      1.000964     -0.266793
C       2.542027      0.870977      0.354256
O       2.620376     -0.281630      0.987552
H      -3.261412     -0.328627     -0.847787
H      -2.074978     -1.637931     -0.771913
H      -2.507125     -0.750188      0.690445
H      -1.060123      0.446502     -1.740964
H      -1.481226      1.330372     -0.281727
H      -0.028835     -0.194948      1.042711
H       1.251444     -1.636467     -0.130886
H       0.836245      1.993947      0.036716
H       1.392532      1.112764     -1.341539
H       3.495599     -0.348307      1.383010
