8
Extracted from Q-Chem output
O      -1.438400      0.412482     -0.511347
C      -0.609472      0.160626      0.628850
C      -1.219845     -0.887361     -0.204742
C      -1.303438     -2.175673     -0.304351
C       0.786682      0.476408      0.520271
C       1.947541      0.756479      0.466765
H      -1.092457      0.362681      1.579207
H       2.982978      0.999976      0.407800
