12
Extracted from Q-Chem output
N      -2.011055      0.058014      0.041882
C      -0.626284      0.018190      0.023643
C       0.154731      1.168353      0.110188
N       1.477448      1.131453      0.145466
C       2.044715     -0.066220      0.095665
N       1.406523     -1.225726      0.012269
C       0.084231     -1.178795     -0.022238
H      -2.427867      0.923044     -0.257513
H      -2.475937     -0.747131     -0.342085
H      -0.313400      2.149425      0.153991
H       3.128308     -0.101315      0.125563
H      -0.441412     -2.129293     -0.086832
