16
Extracted from Q-Chem output
C      -1.433666      1.565843     -0.449125
C      -0.674308      0.412506     -0.033022
C      -0.248602     -0.778358      0.161862
C      -0.896938     -2.059381      0.583838
C       1.153624     -0.688309     -0.281030
C       1.947420      0.441980     -0.054592
N       1.449974      1.624611      0.145301
H      -2.473261      1.305907     -0.675014
H      -0.975544      1.934230     -1.370583
H      -1.372080      2.374674      0.278729
H      -0.716329     -2.827154     -0.171039
H      -1.971824     -1.945101      0.721182
H      -0.450965     -2.403236      1.518734
H       1.511561     -1.495243     -0.914388
H       3.029116      0.269056     -0.036540
H       2.134506      2.245723      0.572625
