16
Extracted from Q-Chem output
C       1.713841      0.278527      1.648387
C       1.455255     -0.094898      0.217794
C       2.190459      0.222119     -0.799517
C       0.245085     -0.927383     -0.185624
C      -1.056798     -0.224308      0.104621
C      -1.608606      0.762144     -0.841622
N      -2.173903     -0.583392     -0.760366
H       0.912166      0.915254      2.026944
H       2.655143      0.815656      1.753944
H       1.756210     -0.621757      2.265148
H       0.294281     -1.882003      0.347187
H       0.277531     -1.160987     -1.252837
H      -1.276979     -0.062821      1.156345
H      -1.064284      0.975200     -1.754889
H      -2.178160      1.594153     -0.443644
H      -3.046796     -0.579183     -0.248358
