13
Extracted from Q-Chem output
O       2.279362      1.212207      0.457765
C       1.703886      0.254787     -0.387604
C       0.295533     -0.005589      0.038343
C      -0.373890      0.471885      1.126369
C      -1.726791     -0.180845      0.897146
C      -1.611777     -1.031718     -0.215866
O      -0.424855     -0.907874     -0.731424
H       1.615226      1.425764      1.129483
H       2.283391     -0.677169     -0.356846
H       1.721448      0.611817     -1.425360
H      -1.681298      0.885002      0.433420
H      -2.538881     -0.222859      1.609104
H      -2.291468     -1.718023     -0.698582
