15
Extracted from Q-Chem output
O       1.440052     -2.926838     -0.453492
C       0.948605     -1.765174     -0.383640
C      -0.092517     -2.228231     -1.142521
C      -1.480207      1.544708      0.756698
C      -0.517427      0.871822     -0.219723
C       0.784938      0.532394      0.427111
C       1.440165     -0.627249      0.357791
H       0.056062     -2.169676     -2.221932
H      -1.737001      0.871403      1.575858
H      -2.403745      1.830122      0.252604
H      -1.040582      2.447739      1.186354
H      -0.978842     -0.020760     -0.648335
H      -0.309684      1.554113     -1.051696
H       1.231157      1.323930      1.025889
H       2.379856     -0.777158      0.876288
