15
Extracted from Q-Chem output
O       1.150227     -2.726651     -0.301348
C       0.673564     -1.629344     -0.012448
C      -0.743603     -1.758059     -0.039398
C      -1.389627      0.716777      0.329580
C      -0.163228      1.270991     -0.374069
C       1.143779      0.797159      0.204715
C       1.495890     -0.473344      0.382314
H      -1.165656     -1.723668     -1.049677
H      -1.374797     -0.400141      0.501697
H      -2.308753      0.924610     -0.217214
H      -1.478931      1.100775      1.347256
H      -0.192868      1.003483     -1.435344
H      -0.197673      2.361461     -0.337766
H       1.871183      1.561615      0.459444
H       2.484723     -0.731829      0.745095
