10
Extracted from Q-Chem output
N       1.544313     -0.086222     -0.358625
C       0.142204     -0.065992     -0.115832
C      -0.701850     -1.264908     -0.163387
O      -1.898716     -1.296014     -0.018018
N      -0.973195      2.101981      0.551027
C      -0.445096      1.092946      0.167673
H       2.061904     -0.559669      0.366924
H       1.782684     -0.476362     -1.258015
H      -0.121398     -2.193442     -0.358273
H      -1.400147      2.734804     -0.116168
