10
Extracted from Q-Chem output
N       1.575453      0.006549     -0.372365
C       0.187306      0.010414     -0.159493
C      -0.721794     -1.102666     -0.065388
O      -1.923304     -0.993409      0.123416
N      -1.737395      1.545761      0.201686
C      -0.608120      1.119650      0.009741
H       2.108062     -0.424098      0.366740
H       1.857887     -0.355474     -1.269416
H      -0.251553     -2.096377     -0.176527
H      -0.486543      2.289649      0.040770
