13
Extracted from Q-Chem output
O       1.472899      2.108104      0.220054
C       0.844613      1.101185      0.054471
N       1.241586     -0.172661      0.288482
C       0.401880     -1.220181     -0.256721
C      -0.929578     -0.577557     -0.622409
C      -1.423934      0.309259      0.437403
N      -0.532426      1.115226     -0.421935
H       2.175387     -0.329902      0.625447
H       0.223420     -2.013478      0.477771
H       0.864280     -1.674336     -1.136014
H      -0.733456      0.597545     -1.412606
H      -2.455128      0.644617      0.412788
H      -1.022233      0.211860      1.442751
