15
Extracted from Q-Chem output
C      -1.676989     -1.062508     -0.212751
N      -0.503252     -0.569173      0.458343
C      -0.265302      0.878513      0.462044
C       0.802090     -0.797781     -0.173413
C       1.239925      0.581740      0.319854
O       1.989515      1.315489     -0.610177
H      -1.746034     -0.716020     -1.258454
H      -2.572953     -0.731905      0.316678
H      -1.671815     -2.154501     -0.213946
H      -0.625593      1.408858      1.346819
H       2.311913      2.115429     -0.192758
H      -0.633412      1.376738     -0.447667
H       0.754174     -0.798143     -1.272657
H       1.345093     -1.679587      0.171876
H       1.742077      0.531608      1.290023
