12
Extracted from Q-Chem output
C       1.119079     -0.325547     -0.480036
C       0.771792      0.976726      0.186612
C      -1.764322      0.241621     -0.231043
O      -1.198620     -0.896370     -0.616525
C      -0.085992     -0.921035      0.288681
C      -0.241523      0.459718      0.955915
H       2.064843     -0.766330     -0.156468
H       1.039682     -0.409781     -1.568849
H       1.152124      1.980584      0.061568
H      -2.183406      0.741583     -1.134260
H       0.000607     -1.873052      0.809048
H      -0.672920      0.780532      1.892458
