13
Extracted from Q-Chem output
C      -1.112834     -0.683554      0.018965
O       0.080429     -1.497192     -0.190174
C       1.137027     -0.762621      0.071181
C       0.827660      0.567286      0.431337
N      -0.443764      1.458532     -1.187046
C      -0.630608      0.784955      0.012431
H      -1.526854     -0.982130      0.985623
H      -1.807580     -0.915896     -0.786408
H       1.071196     -0.227113      1.400066
H       2.100747     -1.214397     -0.132187
H       1.565026      1.353420      0.503433
H      -0.066168      0.805750     -1.874789
H      -1.202509      1.371323      0.736819
