9
Extracted from Q-Chem output
N       0.500674     -0.878716     -0.659334
C       1.400707      0.080864     -0.490773
C       0.238716      0.986604      0.044836
C      -0.676970     -0.146506     -0.182177
N      -0.448387      0.315325      1.153047
H       0.104675      2.048353     -0.089049
H      -1.667374     -0.244144     -0.604933
H       0.644982     -1.851815     -0.880798
H       0.157354     -0.295273      1.692158
