15
Extracted from Q-Chem output
C       2.478456      0.604009     -0.590315
C       0.238934     -0.456194     -0.754012
C      -0.681269     -1.228957     -0.249744
C      -1.766307     -0.762019      0.687689
C      -1.926898      0.735559      0.707719
O      -1.983042      1.396308      1.707012
C       1.156754      0.324312     -1.246092
H       3.302032      0.295018     -1.238046
H       2.565006      0.076328      0.358409
H       2.594868      1.673849     -0.403327
H      -0.671735     -2.285437     -0.503050
H      -2.725699     -1.181588      0.360331
H      -1.591331     -1.111972      1.707296
H      -2.008050      1.211425     -0.291255
H       0.957968      0.808275     -2.199426
