15
Extracted from Q-Chem output
C       2.274657     -0.047268     -0.672260
C       0.620728      0.228278     -0.226888
C      -0.179538     -0.791060      0.041242
C      -1.514794     -0.591385      0.691925
C      -2.421579      0.446564      0.074225
O      -2.135364      1.182298     -0.826900
C       1.269638      1.380348     -0.253751
H       2.901340      0.635791     -1.242465
H       1.998063     -0.846032     -1.367394
H       2.798715     -0.416654      0.199875
H       0.128475     -1.792361     -0.223652
H      -2.076663     -1.530350      0.708026
H      -1.422922     -0.303839      1.749458
H      -3.425601      0.501652      0.547493
H       1.158842      1.986686     -1.152274
