19
smiles: [C:1]([C:2]1=[C:3]([H:12])[O:4][C@:5]([C:6]([H:15])([H:16])[H:17])([H:14])[C:7]1([H:18])[H:19])([H:8])([H:9])[H:10].[H:11][H:13]
C       -2.06995000       0.83957000      -0.21231000
C       -0.73805800       0.17503900      -0.17590200
C       -0.28599100      -0.79887000      -0.95280700
O        0.97608000      -1.23153700      -0.68573200
C        1.53075700      -0.32757100       0.29820200
C        2.59299500       0.51939300      -0.37256900
C        0.34001300       0.49358800       0.82923200
H       -2.69753600       0.42699000      -1.00333100
H       -1.97310900       1.91529100      -0.38637600
H       -2.60029300       0.71697600       0.73691800
H       -2.66260100      -2.15543900       0.30167700
H       -0.78053600      -1.30953600      -1.76802000
H       -3.31109700      -2.52006000       0.33177800
H        1.97746400      -0.95227100       1.07353000
H        3.35739600      -0.11144300      -0.82706800
H        3.07155500       1.17790900       0.35551300
H        2.14197700       1.13515500      -1.15422300
H        0.57809500       1.56109500       0.86709600
H        0.04154900       0.19471200       1.83941900
