12
Extracted from Q-Chem output
N      -1.992623      0.595064     -0.067711
C      -0.630408      0.385267      0.099025
C       0.249577      1.267434      0.661444
N       1.480110      0.570834      0.448070
C       1.449485     -0.575533     -0.158269
C       0.032696     -0.830745     -0.488480
H      -2.303733      1.409718      0.439558
H      -2.582001     -0.202916      0.109824
H      -0.108381     -0.871480     -1.573617
H       2.344144      0.972046      0.783525
H       2.319899     -1.190252     -0.334676
H      -0.306875     -1.790851     -0.085941
