14
Extracted from Q-Chem output
C       1.114676     -0.329639     -0.425544
C       1.249301      0.993962     -1.117094
O       0.346748      1.721420     -1.442822
C      -0.281335     -0.931615     -0.289093
C      -1.276335     -0.145460      0.567311
O      -1.991367      0.838047     -0.135951
H       1.784449     -1.018479     -0.953459
H       2.294671      1.299497     -1.324704
H       1.580960     -0.196253      0.560461
H      -0.724974     -1.080998     -1.277352
H      -0.157383     -1.925187      0.150308
H      -0.754129      0.287247      1.435469
H      -2.024763     -0.836256      0.960979
H      -1.357943      1.344735     -0.660533
