14
Extracted from Q-Chem output
C       1.788504      0.007937      0.051742
C       0.864424      0.435308     -0.918967
O       0.427643      1.617884     -1.106499
C      -0.412600     -0.674569     -0.729327
C      -1.332558     -0.170793      0.371688
O      -1.900461      1.067995      0.088245
H       2.112540     -1.025614      0.059027
H       1.200106     -0.156404     -1.831034
H       2.191718      0.680568      0.804125
H      -0.902862     -0.604644     -1.698396
H      -0.060222     -1.689140     -0.551064
H      -0.796371     -0.167719      1.331699
H      -2.147884     -0.900225      0.454761
H      -1.189747      1.603327     -0.319059
