12
Extracted from Q-Chem output
C       1.435178     -0.176698      0.221286
C      -0.011648      0.161379     -0.006578
C      -1.046469     -0.854926     -0.294577
N      -0.958800     -0.223682      1.021883
C      -0.328097      2.482276     -1.078293
N      -0.208048      1.425467     -0.603196
H       1.977527     -0.198012     -0.724432
H       1.502870     -1.152858      0.698547
H       1.896353      0.564335      0.875043
H      -1.852145     -0.568004     -0.959533
H      -0.763137     -1.900432     -0.324736
H      -1.675477      0.482254      1.137143
