12
Extracted from Q-Chem output
C       1.436665     -0.152030      0.164646
C      -0.010118      0.168752     -0.031193
C      -1.082982     -0.794565     -0.359543
N      -0.955036     -0.230721      0.973234
C      -0.149360      1.531670     -1.108256
N      -0.301542      2.050259     -0.057758
H       1.968530     -0.142934     -0.785876
H       1.510485     -1.142918      0.614833
H       1.897635      0.570901      0.837021
H      -1.875671     -0.450451     -1.012351
H      -0.824701     -1.844719     -0.447928
H      -1.645800      0.477858      1.175724
