14
Extracted from Q-Chem output
C      -1.827901     -0.079189      0.302679
C      -0.348143     -0.068738      0.061443
C       0.342668      0.887406     -0.861387
C       1.207956     -0.351246     -0.964255
C       1.676320     -0.494195      0.489672
O       0.469828     -0.179989      1.204192
H      -2.124027     -0.956606      0.876871
H      -2.093962      0.818494      0.864496
H      -2.369072     -0.068789     -0.642847
H       0.749912      1.752941     -0.343139
H      -0.185614      1.144291     -1.775354
H      -0.076547     -1.075814     -0.570894
H       2.490774      0.206816      0.707939
H       1.991666     -1.505906      0.751444
