12
Extracted from Q-Chem output
O       2.325723     -0.506602     -0.591858
C       1.200457     -0.181368     -0.330152
N       0.591867      0.993743     -0.233870
C      -0.867491      0.895551      0.030630
C      -1.076388     -0.492811      0.597470
N       0.112785     -1.194488     -0.040085
H       1.085825      1.825119     -0.508232
H      -1.389282      1.078171     -0.916414
H      -1.174692      1.661450      0.742330
H      -0.791750     -0.458204      1.655756
H      -0.140860     -1.631558     -0.925556
H       0.489012     -1.933874      0.545368
