14
Extracted from Q-Chem output
O       1.440626      0.584720      1.518222
C       0.478180      0.308533      0.566651
C       0.563821      0.829346     -0.838666
C      -0.935778      0.911253     -0.605337
C      -1.293506     -0.577546     -0.465411
C      -0.164728     -1.062523      0.478463
H       2.172260      1.045754      1.105094
H       1.051989      1.797535     -0.936650
H       0.916287      0.108851     -1.576019
H      -0.499935      0.952732      0.868470
H      -2.294566     -0.738475     -0.068926
H      -1.244622     -1.034291     -1.459221
H      -0.556787     -1.399820      1.437529
H       0.510823     -1.828996      0.091497
