16
smiles: [C:1]([O:2][C:3]([C:4][O:6][H:16])([H:10])[H:11])([H:7])([H:8])[H:9].[C:5]([H:12])([H:13])([H:14])[H:15]
C        1.94841800       0.30596700      -0.91027200
O        1.18047300       0.08664000       0.24190500
C        0.44555700      -1.09824700       0.17639200
C       -0.35959700      -1.28160400       1.41992200
C       -1.66919300       1.86102300      -0.32397400
O       -1.00842600      -2.41130100       1.27738600
H        2.68408300      -0.49496100      -1.06601000
H        1.31958700       0.37470200      -1.80854600
H        2.47634300       1.24886600      -0.77657500
H        1.10535100      -1.97624700       0.05432600
H       -0.24302200      -1.09764000      -0.68795100
H       -1.26139400       1.41970000       0.58412700
H       -2.59726500       2.38041900      -0.09001400
H       -1.86610200       1.07653000      -1.05302700
H       -0.95173500       2.56860700      -0.73690300
H       -1.53948100      -2.55487900       2.06681200
