14
Extracted from Q-Chem output
C      -1.633156     -0.308617     -0.186702
C      -1.171810      1.129647      0.045732
C      -0.481839     -0.479711      0.712257
C       0.799932     -0.666472     -0.039246
C       2.075623     -0.319677      0.595318
O       1.652308     -1.656648      0.525634
H      -1.528879     -0.623991     -1.225106
H      -2.614678     -0.536301      0.216301
H      -1.909881      1.751752      0.542215
H      -0.681245      1.590670     -0.804149
H      -0.411099      1.005612      0.929805
H       0.782316     -0.709376     -1.133364
H       2.922935     -0.060707     -0.033751
H       2.058026      0.120977      1.588320
