13
Extracted from Q-Chem output
N       2.000645     -0.817397      0.540626
C       1.779520     -0.358299      1.607232
C       0.681109      0.555205      0.525340
C       0.368425      0.543340     -0.985666
C      -1.052859      0.243631     -0.547362
C      -1.098757     -0.973598      0.257267
N      -0.685892      0.263700      0.929866
H       1.026669      1.510930      0.898964
H       0.846780     -0.200958     -1.614530
H       0.504939      1.534696     -1.413068
H      -1.936457      0.760453     -0.896817
H      -0.355484     -1.749144      0.105843
H      -2.063560     -1.314447      0.608149
