13
smiles: [C:1]([C:2](=[C:3]([H:10])[H:11])[H:9])([H:6])([H:7])[H:8].[O:4]=[C:5]([H:12])[H:13]
C       -1.16591800      -1.05379800      -0.13165200
C       -0.05258400      -0.78198100       0.82903800
C        1.23723200      -0.85861600       0.54047300
O       -0.51423500       2.02177700      -1.47192500
C        0.34519300       2.08317600      -0.64275400
H       -1.80584000      -0.17493100      -0.24536400
H       -1.80362800      -1.86504000       0.22922100
H       -0.78499500      -1.33069400      -1.11564400
H       -0.34725400      -0.50056700       1.83757600
H        1.58004700      -1.13594100      -0.45127300
H        1.99769100      -0.64822800       1.28255400
H        1.41071900       1.91221500      -0.88952400
H        0.12160900       2.31234800       0.41691600
