13
Extracted from Q-Chem output
C      -1.455172     -0.699134      0.268450
C      -0.283128     -0.124456     -0.507212
C       0.286659      1.179667      0.093273
O       1.682496      0.896881      0.301307
C       1.843821     -0.392193     -0.058721
N       0.864396     -1.044040     -0.506200
H      -1.778106     -1.642498     -0.172109
H      -2.301546     -0.008315      0.260714
H      -1.172846     -0.886905      1.306731
H      -0.585702      0.028542     -1.547077
H      -0.157547      1.428717      1.059832
H       0.208201      2.040847     -0.569796
H       2.848474     -0.777114      0.070808
