11
smiles: [C:1]([C:2](=[O:3])[C:4](=[O:5])[H:11])([H:6])([H:7])[H:8].[H:9][H:10]
C        1.31323500      -0.49413100      -0.09562200
C        0.04145700      -0.08221300      -0.78038500
O       -0.01315500       0.62388000      -1.74608300
C       -1.26464700      -0.63557700      -0.15578900
O       -2.34122200      -0.40050800      -0.61102500
H        2.17077500      -0.05815500      -0.60153000
H        1.29665500      -0.17284000       0.94949200
H        1.39948200      -1.58426500      -0.09109400
H       -0.57350300       2.06841100       1.63427100
H       -0.73110000       2.24625500       0.92858800
H       -1.13723400      -1.26880300       0.74791200
