10
Extracted from Q-Chem output
N       1.759782      0.069873      0.221052
C       0.407629     -0.105628      0.068527
C      -0.563847      0.794073     -0.356956
N      -1.732074      0.146936     -0.377878
N      -1.462261     -1.151191      0.105895
N      -0.189399     -1.254995      0.398644
H       2.193733      0.735928     -0.392663
H       2.276263     -0.787882      0.321325
H      -0.481998      1.827793     -0.650312
H      -2.200356     -0.304800      0.671898
