17
Extracted from Q-Chem output
C       1.777848      0.451493     -0.653079
C       0.508773      0.181289      0.103030
C       0.180921     -1.255170      0.532827
C      -1.217975     -1.139826     -0.123590
C      -0.904270      0.317921     -0.527225
C      -1.296606      1.438934      0.385147
O       0.363821      1.080475      1.237238
H       2.637121      0.316572      0.007946
H       1.877327     -0.233201     -1.497251
H       1.790203      1.474931     -1.032856
H       0.832894     -2.006907      0.086997
H       0.185477     -1.379279      1.615195
H      -2.066195     -1.255867      0.552358
H      -1.359989     -1.810350     -0.971675
H      -1.013306      0.567409     -1.583966
H      -2.042085      1.182644      1.144286
H      -0.087378      1.966788      0.790744
