17
Extracted from Q-Chem output
C       2.184711      0.257518      0.013334
O       1.076143      0.365339      0.872826
C      -0.176475     -0.024238      0.330582
C      -0.552206      0.819522     -0.893059
C      -1.171273      0.179052      1.472639
C      -0.126492     -1.492526     -0.029909
O      -1.310443     -1.847453     -0.458729
H       2.213977     -0.717363     -0.483797
H       3.074235      0.360993      0.633719
H       2.195017      1.050762     -0.744033
H       0.083498      0.597350     -1.752177
H      -0.439990      1.876270     -0.645460
H      -1.585173      0.628378     -1.181810
H      -1.124627      1.218432      1.798300
H      -2.186001     -0.055962      1.153906
H      -0.907448     -0.454980      2.320385
H      -1.285375     -2.784854     -0.675680
