14
smiles: [C:1]([C@@:2]1([H:10])[C@:3]([O:4][H:12])([H:11])[C:5]1)([H:7])([H:8])[H:9].[O:6]([H:13])[H:14]
C        1.90748000      -0.80010500      -0.20712600
C        1.26289400       0.22978100       0.67510200
C       -1.20189800       1.04176400       0.45487400
O       -1.59046200       2.10534300      -0.31752800
C        0.03758200       0.65300600       0.55433700
O       -1.07641900      -1.21374700      -0.82629400
H        2.24049300      -1.65732700       0.38331200
H        1.21572300      -1.14999500      -0.97200000
H        2.79032000      -0.38412800      -0.69848100
H        1.88062000       0.64938400       1.46762900
H       -1.98829100       0.52341300       0.99636600
H       -2.53859900       2.21270100      -0.24106400
H       -1.89192700      -1.70933700      -0.74179300
H       -1.32552800      -0.37940500      -1.22584900
