12
Extracted from Q-Chem output
O      -2.423084     -1.049948      0.753414
C      -1.804367     -0.085614      0.601647
C       0.745793     -1.147411     -0.724937
C       1.157706      0.177441     -0.165132
C       0.337193      1.108149      0.319587
C      -1.120085      1.027793      0.451901
H       1.458088     -1.491386     -1.475542
H       0.694106     -1.920247      0.048389
H       2.219673      0.399319     -0.154046
H       0.762682      2.042131      0.669992
H      -1.717089      1.930322      0.495731
H      -0.238183     -1.092393     -1.197726
