14
Extracted from Q-Chem output
O       2.052391     -0.277236      3.048070
C       2.200011      0.308199      1.772219
C       0.952014      0.363877      1.006376
C      -0.078828      0.432948      0.397869
C      -1.327877      0.479666     -0.356705
C      -1.785339     -0.509224     -2.517841
N      -1.460578     -0.657075     -1.268965
H       1.361026      0.192148      3.519079
H       2.617596      1.319941      1.841292
H       2.925973     -0.304685      1.235979
H      -2.173723      0.489040      0.336481
H      -1.819901     -1.523726     -2.953775
H      -1.386823      1.374827     -0.975625
H      -1.268205     -1.553585     -0.828027
