14
Extracted from Q-Chem output
O       1.914662     -0.076133      2.857963
C       1.949438      0.695786      1.677724
C       0.760665      0.528685      0.837455
C      -0.230577      0.393247      0.175230
C      -1.424615      0.211374     -0.619885
C      -1.484689     -1.025380     -2.070689
N      -1.900005     -1.200545     -0.711306
H       1.109965      0.133258      3.336693
H       2.077497      1.762619      1.897850
H       2.833046      0.370519      1.126546
H      -2.252928      0.867327     -0.361230
H      -0.411029     -1.325677     -2.137534
H      -1.210884      0.513823     -1.710813
H      -1.235049     -1.750939     -0.171005
