11
Extracted from Q-Chem output
C       1.354797     -0.282167      0.233862
C      -0.122392     -0.043741      0.139478
N      -0.956144     -1.046606      0.706766
C      -0.603729      1.052027     -0.395278
N      -1.055929      2.152300     -0.708420
H       1.918036      0.550501     -0.185573
H       1.640369     -0.415066      1.279701
H       1.639415     -1.189480     -0.307897
H      -1.237240      2.250068     -1.706829
H      -0.876038     -1.928468      0.216996
H      -1.927136     -0.774136      0.739046
