11
Extracted from Q-Chem output
C       1.266289     -0.059310      0.076950
C      -0.223834      0.160377      0.101057
N      -1.069048     -0.904471      0.362781
C      -0.707478      1.507519      0.597283
N      -0.841911      1.613057     -0.656399
H       1.776872      0.803428     -0.346169
H       1.604947     -0.192054      1.106988
H       1.534285     -0.949454     -0.494847
H      -0.440517      0.587617     -1.182412
H      -1.155190     -1.622735     -0.336781
H      -1.938718     -0.668551      0.810991
