13
Extracted from Q-Chem output
O       1.142071      1.171722     -1.379997
C       1.549653      0.088692     -0.919521
N       1.130322     -0.384367      0.224722
C      -0.365742      1.154143      0.069815
C      -1.131107     -0.126288     -0.123544
C      -0.111003     -1.095880      0.457708
H       2.352639     -0.417109     -1.475100
H      -0.074935      1.396246      1.084257
H      -0.650145      2.017191     -0.517045
H      -2.126872     -0.098544      0.334789
H      -1.269304     -0.306454     -1.191217
H      -0.132562     -2.105482      0.034512
H      -0.236199     -1.194833      1.538139
