15
smiles: [C-:3]#[O+:4].[C:1]([O:2][C:5]([C:6]([O:7][H:15])([H:13])[H:14])([H:11])[H:12])([H:8])([H:9])[H:10]
C       -2.02690400      -0.29058200       0.31980000
O       -0.74663100       0.12476000      -0.07259200
C       -0.38224700       1.94544600      -2.46174300
O       -1.49569500       2.05900500      -2.55861300
C        0.27724000      -0.53748500       0.62300300
C        1.60091800      -0.01010900       0.11662000
O        2.61986200      -0.68395900       0.82910300
H       -2.17662900      -1.36239400       0.13388000
H       -2.20350300      -0.09566400       1.38588300
H       -2.74932900       0.27469000      -0.26755900
H        0.19733700      -0.35835000       1.70468300
H        0.22489000      -1.62336300       0.45990700
H        1.67266400      -0.19471100      -0.96180700
H        1.64229100       1.07324400       0.28078000
H        3.47081700      -0.37169100       0.52148000
