15
Extracted from Q-Chem output
C      -2.175730     -0.466780     -0.061833
O      -1.287870      0.585571      0.302441
C      -0.463930      1.325256     -0.813903
O      -0.822015      1.134268     -1.914537
C       0.545291      0.393396      0.737466
C       1.716211      0.065498     -0.166167
O       2.700025     -0.583553      0.616254
H      -1.954048     -0.821649     -1.071562
H      -2.067929     -1.275826      0.662779
H      -3.201292     -0.098092     -0.030371
H       0.668914      1.273415      1.350733
H       0.239533     -0.478565      1.316253
H       1.404056     -0.547752     -1.015488
H       2.151369      0.984305     -0.555308
H       2.516217     -1.523927      0.647280
