11
Extracted from Q-Chem output
O       2.205395      0.122340     -0.296092
C       0.869945     -0.050928     -0.096952
C       0.027431     -0.928958     -0.881834
N      -1.213804     -0.525761     -0.462981
C      -1.207475      0.540845      0.410004
C       0.068972      0.891368      0.664977
H       2.447627     -0.408629     -1.061406
H       0.655213     -1.170463      0.385289
H      -2.047749     -1.014691     -0.733028
H      -2.126557      0.952836      0.800274
H       0.425871      1.684941      1.299704
