10
Extracted from Q-Chem output
O       1.563260     -1.080933     -1.079678
C       0.767988     -0.437057     -0.533096
C       0.577133      0.905605      0.176546
O      -0.787466      0.882615      0.451308
C      -1.081637     -0.478788      0.277036
O      -0.245740     -1.285625      0.811453
H       0.831873      1.758373     -0.453278
H       1.207731      0.860702      1.067529
H      -0.628263     -0.467416     -1.008095
H      -2.158804     -0.661746      0.269885
