12
Extracted from Q-Chem output
N      -2.137434      0.083357      0.038747
C      -0.896218      0.118520      0.501336
C       0.680326      0.995359     -0.532860
N       1.691196      0.438688      0.210709
C       1.339796     -0.822485      0.385413
C       0.001930     -0.773809     -0.143828
H      -2.838666      0.685264      0.429654
H      -2.438659     -0.506628     -0.730709
H       0.405695      2.004592     -0.216048
H       2.437824      0.938519      0.672444
H       1.987275     -1.637445      0.665584
H      -0.364508     -1.573983     -0.802296
