17
Extracted from Q-Chem output
C       2.245076      0.044367     -0.034380
C       0.774435     -0.199873     -0.164671
C       0.025063     -1.184004      0.454426
C      -1.367218     -0.924258      0.322021
C      -1.453764     -0.027451     -0.918064
C      -0.169060      0.689677     -0.720549
O      -1.015074      1.518650      0.944122
H       2.453070      0.934159      0.567698
H       2.719695      0.191199     -1.006591
H       2.735778     -0.801631      0.448346
H       0.443630     -1.973032      1.070313
H      -1.343494      0.227582      1.009425
H      -2.105348     -1.692822      0.519223
H      -1.397671     -0.633707     -1.830264
H      -2.319303      0.628773     -0.964451
H       0.078596      1.614224     -1.225243
H      -0.248354      1.654151      1.504441
