12
Extracted from Q-Chem output
C      -1.508680      0.291994     -0.297440
C      -0.515585     -0.704147      0.293455
C       0.898015     -0.198395      0.292835
C       1.972935     -0.636683     -0.446596
C       1.414613      0.834149      1.004243
O       1.947707      1.685259      1.559186
H      -1.525789      1.224837      0.271631
H      -1.246484      0.532424     -1.329233
H      -2.519281     -0.118468     -0.290444
H      -0.496009     -1.624059     -0.294159
H      -0.812987     -0.974878      1.310366
H       2.901227     -0.073252     -0.267722
