11
Extracted from Q-Chem output
N      -2.065079     -0.306457     -0.059479
C      -0.943510      0.348371     -0.471553
O      -1.003861      1.313369     -1.209348
C       0.326915     -0.202983      0.048975
C       1.474128      0.373357     -0.306799
O       2.707138      0.007813      0.068142
H      -2.030335     -1.117334      0.527044
H      -2.952125      0.019363     -0.397801
H       0.311756     -1.065584      0.708387
H       2.663211     -0.753424      0.654016
H       1.477021      1.233577     -0.965782
