13
Extracted from Q-Chem output
O       1.286380      1.991149     -0.916634
C       1.542857      1.014984     -0.271395
C       0.788912     -0.288515     -0.409899
O       0.665547     -1.011174      0.814334
C      -0.787025     -1.023325      0.673340
C      -1.496093      0.217037      0.933516
C      -0.717765     -0.226967     -0.605821
H       2.362851      0.997455      0.473371
H       1.279148     -0.900160     -1.178150
H      -1.228987     -2.004777      0.785222
H      -1.396983      0.755428     -0.304359
H      -0.810031      0.949485      1.375534
H      -1.254338     -0.508219     -1.502507
