11
Extracted from Q-Chem output
C      -1.604558     -0.242876      0.682133
N      -0.352214     -0.028276      0.185273
C       0.405288      1.125583      0.336890
N       1.536855      1.075654     -0.311923
N       1.535225     -0.111596     -0.891525
C       0.407808     -0.809199     -0.599859
H      -1.953351     -1.263041      0.657098
H       2.306862     -0.401504     -1.461342
H      -1.895942      0.409141      1.489166
H       0.065673      1.963903      0.918531
H       0.152438     -1.789448     -0.955424
