15
smiles: [C:1]([C@@:2]1([H:14])[C:3]([H:11])([H:12])[N:4]1[H:13])([H:8])([H:9])[H:10].[C:5](=[O:6])=[N:7][H:15]
C       -1.38747700      -1.06496800       0.39185000
C       -0.74124400       0.26764600       0.65153400
C       -0.38429900       1.16345100      -0.46483500
N       -1.48786600       1.50227800       0.43505400
C        2.53218100      -0.76998700      -0.51980000
O        2.15813500      -1.52019700       0.28175800
N        2.79254000       0.06336300      -1.35418000
H       -1.96374300      -1.04514500      -0.53704300
H       -0.63605800      -1.85213800       0.30087700
H       -2.06394600      -1.33771900       1.20501800
H        0.48101300       1.81177100      -0.39459000
H       -0.62114800       0.82950800      -1.47014400
H       -2.37600900       1.29888700      -0.00915000
H       -0.11895200       0.30556900       1.54093200
H        3.68648700       0.19069600      -1.79111300
