15
Extracted from Q-Chem output
C      -1.041610     -1.014690      0.547376
C      -0.188344      0.081779     -0.023814
C      -0.697115      0.928034     -1.125457
N      -0.589946      1.521053      0.186395
C       1.530134     -0.533050     -0.461862
O       1.492966     -1.428256     -1.231742
N       2.254602      0.236850      0.284524
H      -2.104124     -0.776973      0.442549
H      -0.854670     -1.950587      0.019399
H      -0.830281     -1.171472      1.606840
H      -0.014162      1.322987     -1.868614
H      -1.682706      0.669750     -1.499277
H      -1.483914      1.525850      0.667487
H       0.925698      0.450668      0.562055
H       3.262117      0.109667      0.257785
