14
smiles: [C-:1]([C:2]1=[C:3]([N:4]([H:11])[H:12])[C:5]([H:13])=[C:6]=[O+:7]1)([H:8])[H:10].[H:9][H:14]
C       -0.64592000      -1.42942500       1.01574800
C        0.30712300      -0.52790200       0.85438900
C        0.31475900       0.73818900       0.10895300
N       -0.74793800       1.19470800      -0.57097800
C        1.56080600       1.26264000       0.27834900
C        2.35792600       0.39567500       1.09969900
O        1.55639700      -0.65823400       1.41482700
H       -1.62068100      -1.30699900       0.56246100
H       -1.22988000      -1.62876100      -2.81685400
H       -0.46779400      -2.31639200       1.60793900
H       -0.70079000       2.06793300      -1.06006100
H       -1.61356000       0.69101100      -0.59245000
H        1.92915200       2.19169200      -0.12990500
H       -0.92582500      -1.01506900      -2.52475000
