14
Extracted from Q-Chem output
C      -1.288553     -1.075567      0.196235
C      -0.352667     -0.237480      0.788740
C       0.211298      0.866330      0.070736
N      -0.522622      1.900104     -0.448199
C       1.470558      0.409252     -0.211192
C       1.731285     -0.852232      0.456434
O       0.620834     -0.945611      1.356002
H      -2.013630     -0.662702     -0.495975
H      -0.082411     -1.630775     -0.528089
H      -1.556793     -2.000516      0.692423
H      -0.019434      2.581655     -0.988351
H      -1.231318      2.296267      0.143323
H       2.147919      0.826165     -0.944331
H       0.974496     -1.651606     -0.441710
