10
Extracted from Q-Chem output
C      -1.570036     -0.367793     -0.040596
C      -0.135836      0.000600      0.002405
C       0.520962      1.208286      0.094720
N       1.797199      0.713581      0.073148
N       1.971748     -0.569549     -0.015238
O       0.747421     -1.035371     -0.061127
H      -1.829358     -1.046533      0.773627
H      -1.825293     -0.855917     -0.983034
H      -2.159735      0.540769      0.053992
H       2.642573      1.263534      0.120594
