10
Extracted from Q-Chem output
C      -1.721362      0.037909      0.222267
N      -0.260409      0.125624      0.296083
N       0.706733      0.683108      0.958676
C       1.796211      0.204613      0.342428
N       1.512276     -0.622694     -0.669879
N       0.215594     -0.632742     -0.650027
H      -2.092745     -0.356564      1.168165
H      -0.839037     -0.937014     -1.001234
H      -2.119571      1.037131      0.045429
H       2.802312      0.460627      0.631944
