16
Extracted from Q-Chem output
C      -1.656312     -1.014802      0.761261
C      -0.536908     -0.137004      0.282292
C      -0.963938      1.132996     -0.393369
C       0.738103     -0.482027      0.456427
C       1.926236      0.320145     -0.002566
O       2.034681      0.422118     -1.417723
H      -2.312230     -1.295092     -0.067939
H      -2.277367     -0.481634      1.486903
H      -1.284426     -1.925936      1.229677
H      -1.562348      0.904837     -1.279992
H      -0.122464      1.744167     -0.711919
H      -1.601499      1.721163      0.273023
H       1.831437     -0.438057     -1.790286
H       0.951633     -1.422920      0.957005
H       2.841503     -0.115246      0.414214
H       1.870230      1.349499      0.359352
