16
Extracted from Q-Chem output
C       2.148005      0.484020      0.243833
C       1.157111     -0.674963      0.396615
C       0.017316     -0.472271     -0.545581
C      -2.055673     -0.556971     -0.176378
C      -0.842842      0.604282     -0.448287
C      -0.947418      1.900854     -0.281203
H       2.665018      0.428403     -0.714506
H       1.623018      1.441536      0.290194
H       2.893168      0.451935      1.038621
H       1.637803     -1.639426      0.223648
H       0.768654     -0.685081      1.419072
H      -0.165866     -1.225715     -1.306929
H      -2.711669      0.049197      0.440095
H      -2.509636     -0.803580     -1.132868
H      -1.835711     -1.471768      0.374502
H      -1.865043      2.258004      0.191612
