13
Extracted from Q-Chem output
C      -1.798851     -0.304900      0.531154
C      -0.361114     -0.341971      0.094649
C       0.152321      0.164874     -1.157599
N       0.350446      0.948529     -0.131537
C       2.139152      0.598823      0.477613
O       2.710425      1.250853      1.211244
H      -1.870193     -0.161294      1.611276
H      -2.299404     -1.243684      0.283533
H      -2.332461      0.510293      0.042061
H       0.248880     -1.123461      0.560779
H       1.454728     -0.660346     -1.341440
H      -0.050786      0.348454     -2.202075
H       2.065700     -0.520666     -0.746453
