14
Extracted from Q-Chem output
C      -2.157056      0.474012     -0.151121
O      -1.938633     -0.840512     -0.675502
C      -0.749884     -1.342761     -0.840547
C       0.503205     -0.836357     -0.602175
C       0.762224      0.443763     -0.087039
C       2.210125      0.748058      0.022523
H      -1.670952      1.215788     -0.781272
H      -3.238959      0.590282     -0.141185
H      -1.728439      0.556455      0.845360
H       1.300430     -1.546483     -0.857656
H      -0.839315     -2.348872     -1.246948
H       2.908142     -0.091721     -0.121242
H       2.415057      1.500631     -0.750689
H       2.430971      1.259888      0.962604
