12
Extracted from Q-Chem output
C      -1.535680     -0.652529      0.190823
C       1.295400      0.236607     -0.068783
C       0.638752      1.512341     -0.356879
O       1.269068      2.511076     -0.613184
C       0.823172     -0.985824      0.234427
O      -0.402627     -1.478729      0.375259
H      -2.402439     -1.290067      0.346938
H      -1.545276      0.162086      0.919002
H      -1.558398     -0.245747     -0.823092
H       2.376862      0.301496     -0.107648
H      -0.462761      1.560582     -0.337028
H       1.542483     -1.778635      0.412254
