12
Extracted from Q-Chem output
C      -1.470579     -0.299959     -0.209010
C       0.974421     -0.089797     -0.389561
C       0.609161      1.303725     -0.212951
O       0.715003      2.158546     -1.066541
C       0.842727     -0.931672      0.727281
O      -0.248105     -1.046920      1.305946
H      -1.526882     -1.307968     -0.591820
H      -2.096876     -0.072013      0.639860
H      -1.398154      0.479952     -0.953547
H       1.706751     -0.294665     -1.163515
H       0.210536      1.557573      0.792083
H       1.700575     -1.469676      1.151081
