11
smiles: [C:1](/[C:2](=[N:3]/[H:10])[C:4]#[N:5])([H:6])([H:8])[H:9].[H:7][H:11]
C        1.02526800       0.29720200      -0.49418000
C       -0.43125900       0.47103900      -0.20555900
N       -1.00132400      -0.10207700       0.76644600
C       -1.16427900       1.34610800      -1.11783800
N       -1.74670000       2.03166700      -1.83081400
H        1.53476000       1.26241300      -0.46442100
H        0.82976600      -2.75209300       2.06874000
H        1.45731900      -0.37278700       0.24547700
H        1.16509700      -0.11478600      -1.49565400
H       -1.99224300       0.12633400       0.81402900
H        0.33922100      -2.21849700       1.89842200
