16
Extracted from Q-Chem output
C       2.169233      0.193480     -0.153291
O       1.328098     -0.359025      0.829900
C       0.140402      0.353245      1.038118
C      -0.878228      0.177396     -0.100674
N      -2.113299      0.846157      0.372847
O      -2.353623      1.875926     -0.179089
C      -1.197674     -1.283823     -0.359636
H       3.107286     -0.358187     -0.118866
H       1.746848      0.102457     -1.161076
H       2.370174      1.253316      0.047190
H       0.349119      1.423593      1.174426
H      -0.293250     -0.030247      1.964239
H      -0.540295      0.692633     -1.004681
H      -1.623078     -1.744348      0.533768
H      -0.286035     -1.821448     -0.618800
H      -1.911757     -1.390922     -1.176962
