15
Extracted from Q-Chem output
C      -1.924143      0.409353      0.345710
C      -1.160745     -0.763161     -0.257377
C       0.279079     -0.864776      0.240535
C       2.418927      0.922732     -0.236588
C       1.141575      0.243554     -0.217889
N       1.119126      1.246187     -0.958187
H      -1.959781      0.336020      1.435843
H      -1.456277      1.359699      0.085309
H      -2.952363      0.432654     -0.018466
H      -1.672477     -1.699633     -0.020830
H      -1.152787     -0.678267     -1.347255
H       0.318122     -0.893900      1.334708
H       0.746714     -1.795709     -0.095905
H       3.235897      0.551357     -0.848713
H       2.703832      1.590347      0.571474
