15
Extracted from Q-Chem output
C      -2.202577      0.100576      0.203987
C      -0.929882     -0.640711     -0.178440
C       0.304041     -0.154248      0.588410
C       2.982816     -0.558499     -0.825276
C       0.610188      1.251079      0.323292
N       0.848577      2.349871      0.092923
H      -2.419343     -0.012685      1.268908
H      -2.118906      1.168201     -0.009254
H      -3.057494     -0.285565     -0.352180
H      -1.038793     -1.708835      0.021426
H      -0.741055     -0.540877     -1.249849
H       0.167028     -0.272028      1.666414
H       1.178936     -0.763965      0.313083
H       2.685533      0.096048     -1.669089
H       3.577625      0.132903     -0.194995
