16
Extracted from Q-Chem output
C       1.259849      0.215522      1.001997
C       0.535672      0.118796     -0.350708
C      -0.502562     -1.010150     -0.392724
C      -0.109925      1.455203     -0.568282
C      -1.534664     -0.982648      0.728077
O       0.742206      2.213158     -1.215604
H       1.638492     -0.767041      1.290653
H       2.103015      0.904490      0.941851
H       0.591057      0.566388      1.789780
H       1.291286     -0.062409     -1.126832
H      -1.016836     -0.967644     -1.357634
H       0.034869     -1.964042     -0.377969
H      -2.287020     -1.758078      0.573654
H      -2.042094     -0.017776      0.764386
H      -1.077956     -1.160785      1.703785
H       0.346756      3.084245     -1.326138
