15
Extracted from Q-Chem output
C       1.830591      1.032554      0.993801
C       0.020584     -0.094634     -1.556277
N      -0.624147     -0.199805     -0.391383
C      -1.659686     -1.231119     -0.305046
C      -0.415757      0.500070      0.709738
O       0.514205      1.483495      0.688213
H       2.112436      0.184181      0.363252
H       1.901073      0.742573      2.045831
H       2.505621      1.865175      0.800457
H      -0.282624     -0.746221     -2.356757
H       0.745337      0.689448     -1.684003
H      -1.199046     -2.208708     -0.435581
H      -2.390971     -1.061679     -1.093179
H      -2.146571     -1.183194      0.664903
H      -1.062126      0.378416      1.564357
