9
Extracted from Q-Chem output
N      -0.767730     -0.296553     -0.235818
C       0.464687      0.025799      0.628206
C       1.656988     -0.426928      0.030348
N       2.618034     -0.757986     -0.517800
C      -0.848592      1.105509     -0.206745
N      -1.303158      2.158804     -0.410365
H      -1.527600     -0.811785      0.207305
H      -0.542797     -0.689374     -1.149479
H       0.275554     -0.218352      1.662562
