11
Extracted from Q-Chem output
N      -1.775006     -0.126179      0.211563
C      -0.431868     -0.136081     -0.293692
C       0.581552     -1.188633     -0.006880
C       1.719353     -0.405771      0.195390
N       1.502209      0.936141      0.185387
N       0.263896      1.130044     -0.031910
H      -1.790135     -0.498444      1.152014
H      -2.362577     -0.723448     -0.351442
H      -0.444452     -0.210305     -1.397592
H       2.728608     -0.730060      0.404089
H      -0.102920      2.065720     -0.112964
