11
Extracted from Q-Chem output
N      -1.785160     -0.155964      0.322447
C      -0.423912     -0.130815     -0.071959
C       0.590960     -1.155932      0.186217
C       1.753928     -0.337845      0.147962
N       1.526109      0.972103      0.035989
N       0.241417      1.129415     -0.035710
H      -1.966553     -0.981800      0.872807
H      -2.430576     -0.123518     -0.451240
H      -0.218210     -0.535041     -1.127339
H       2.779582     -0.663021      0.242578
H      -0.155862      2.047972     -0.139619
