14
smiles: [C:1]([C:4]([C:2](=[O:3])[H:10])([H:12])[H:13])([H:7])([H:8])[H:9].[C:5](=[O:6])([H:11])[H:14]
C       -1.39271300      -1.12554600       0.05766400
C       -0.36805700       0.91683900      -0.98121700
O        0.59885000       1.61778400      -0.86642600
C       -0.35585800      -0.58560200      -0.92445400
C        2.06587500       0.66538100       1.47614400
O        1.60051600      -0.37517700       1.83743500
H       -2.39599700      -0.77052600      -0.18864200
H       -1.41382900      -2.21521100       0.03654200
H       -1.16733300      -0.81456800       1.07921100
H       -1.37152100       1.37100400      -1.14138200
H        2.89206500       0.71415400       0.74092700
H       -0.58687300      -0.94268400      -1.93493900
H        0.65407100      -0.91458700      -0.67686900
H        1.69502300       1.63617800       1.85758700
