19
Extracted from Q-Chem output
C       1.860180      0.738335      1.282336
C       0.937138     -0.425835      1.067654
C       0.539826     -0.794186     -0.197896
O      -0.065606     -2.011443     -0.418691
C      -0.897979      0.741169     -0.730076
C      -1.578259     -0.031232     -1.830096
O      -1.565896      1.073352      0.288379
H       2.900501      0.411008      1.216074
H       1.700430      1.510795      0.529202
H       1.711744      1.191318      2.262166
H       0.928499     -1.188453      1.841343
H      -0.382077      0.104956      1.813556
H       1.086095     -0.454520     -1.066520
H      -0.600299     -2.241094      0.345079
H      -0.101988      1.428762     -1.055478
H      -2.150457     -0.863608     -1.423813
H      -2.271712      0.645993     -2.335561
H      -0.869658     -0.414106     -2.564765
H      -0.995187      0.566675      1.414158
