17
smiles: [C:1]1([H:8])([H:9])[C:2]([H:10])([H:11])[C:3]1([C@@:4]1([H:13])[C:5]([H:14])=[C:6]([H:17])[O:7]1)[H:12].[H:15][H:16]
C       -1.97071400      -0.09144000       0.75164400
C       -1.22280100       0.82198600      -0.17737100
C       -0.75196100      -0.58018700       0.02995300
C        0.50960300      -0.86605300       0.78655000
C        1.84060200      -0.44031600       0.21214200
C        1.93935000       0.38023300       1.25172100
O        0.74601700       0.09272200       1.87643500
H       -1.87270500       0.10126200       1.81194200
H       -2.93530800      -0.47070800       0.44111100
H       -1.67204200       1.07131300      -1.12940500
H       -0.63927900       1.61414600       0.27322700
H       -0.91662400      -1.27827100      -0.78402800
H        0.49990800      -1.87186100       1.21424200
H        2.43086900      -0.70085400      -0.64802100
H        0.64687900       0.56423300      -2.47573200
H        0.77534200       0.64518300      -3.20473200
H        2.62563000       1.10277300       1.67238000
