17
Extracted from Q-Chem output
C      -1.765486     -0.114639      1.325554
C      -1.657158      0.692412      0.063726
C      -0.981737     -0.639800      0.163885
C       0.514750     -0.734924      0.248725
C       1.330802     -0.333499     -0.992178
C       1.969557      0.699653     -0.060742
O       1.107336      0.324106      1.023507
H      -1.201596      0.238157      2.179017
H      -2.711916     -0.583133      1.560897
H      -2.529002      0.777049     -0.571366
H      -1.031482      1.575250      0.102404
H      -1.429036     -1.455655     -0.395098
H       0.798714     -1.709406      0.663579
H       1.998399     -1.093926     -1.391993
H       0.728143      0.088155     -1.795163
H       3.020603      0.520555      0.183729
H       1.839110      1.749645     -0.335792
