12
Extracted from Q-Chem output
C       1.601265      0.350465     -0.730227
O       1.306782     -0.419316      0.859492
C       0.316592      0.054010     -0.103668
C      -0.802299      0.895321      0.492954
O      -1.777463     -0.082803      0.099737
C      -0.786457     -0.893878     -0.546728
H       1.568444     -1.314256      0.617618
H       1.910214      1.340980     -0.362682
H      -0.960210      1.856144     -0.004701
H      -0.751931      1.033745      1.575752
H      -0.744464     -1.908631     -0.137244
H      -0.922096     -0.937153     -1.630875
