12
Extracted from Q-Chem output
C       1.600251      0.231931     -0.572376
O       1.205719     -0.544061      0.948993
C       0.274012     -0.046274     -0.018293
C      -0.808990      0.896006      0.480516
O      -1.825798      0.017546     -0.023558
C      -0.859319     -0.919272     -0.527873
H       1.973105     -0.856822      0.216459
H       1.935051      1.232151     -0.276147
H      -0.835404      1.874965     -0.005557
H      -0.852839      1.012935      1.566141
H      -0.933510     -1.897220     -0.044698
H      -0.913900     -1.027258     -1.614178
