14
Extracted from Q-Chem output
C      -2.162621     -0.336550      0.649283
C      -1.172037      0.153850     -0.377822
O       0.137013      0.064997      0.201217
C       1.158060      0.422298     -0.590214
O       1.018431      0.793387     -1.724279
C       2.471160      0.308396      0.130075
H      -1.955886     -1.371311      0.925313
H      -2.126050      0.275062      1.551623
H      -3.172788     -0.285436      0.240014
H      -1.196180     -0.448317     -1.288147
H      -1.360893      1.190599     -0.664380
H       2.528536      1.082172      0.897216
H       3.284452      0.440161     -0.578077
H       2.548803     -0.657373      0.628176
