15
Extracted from Q-Chem output
C      -2.188817     -0.170399     -0.906089
C      -1.071948     -0.394034      0.097375
C       0.145854      0.386156     -0.069398
C       1.234388      0.187039      0.833528
O       1.249452     -0.674027      1.766123
C       2.557250      0.151783     -0.149332
O       2.852535      0.932506     -0.986951
H      -2.548647      0.859544     -0.875053
H      -3.034905     -0.823729     -0.693378
H      -1.854864     -0.380090     -1.923736
H      -0.726529     -1.441247      0.143051
H      -1.387410     -0.246230      1.142497
H       0.268184      1.113394     -0.868841
H       1.438924      1.284068      1.091870
H       3.155480     -0.718716      0.176679
