12
Extracted from Q-Chem output
O       1.292508     -0.636111     -1.706391
C       0.003506     -0.761833     -1.718099
C       0.124416     -0.514550      1.361646
C      -0.558188      0.478743      0.469135
O       0.248528      1.324223     -0.342745
C      -0.623010      0.382581     -0.996457
H       1.558360      0.187002     -1.231946
H       0.918505     -1.057424      0.851032
H      -0.604840     -1.239369      1.726695
H       0.553224     -0.000462      2.223283
H      -1.383552      1.011492      0.937516
H      -1.481846      0.820735     -1.496425
