12
Extracted from Q-Chem output
O       1.481334     -0.629335     -1.402457
C       0.261294     -0.822684     -0.905139
C       0.108262     -0.419069      1.202355
C      -0.759455      0.623200      0.588865
O      -0.015225      1.514595     -0.229190
C      -0.630390      0.367235     -0.841355
H       1.692304      0.316654     -1.414238
H       0.221529     -1.389735      0.170157
H      -0.403147     -1.132896      1.847444
H       1.056372     -0.079036      1.608366
H      -1.639237      1.044025      1.062111
H      -1.332131      0.592829     -1.635068
