12
smiles: [C:3](=[C:4]([H:11])[H:12])([H:9])[H:10].[N:1]([C+:2]=[C:5]=[N-:6])([H:7])[H:8]
N        1.08717600       1.34599500       0.82455700
C        2.17046500       1.06922000       0.16059200
C       -1.61387000      -0.36534700      -0.63302000
C       -1.26848600      -1.15440200       0.36975900
C        1.99542400       0.01204600      -0.78682400
N        1.97989300      -0.82461900      -1.58070200
H        0.19253800       0.87967700       0.70904200
H        1.11486700       2.07961400       1.51617600
H       -1.02514400      -0.30901600      -1.54153600
H       -2.50158200       0.25536000      -0.58863300
H       -1.85718400      -1.21088200       1.27828000
H       -0.38079600      -1.77514100       0.32524500
