12
Extracted from Q-Chem output
N       0.793590      1.310858      0.847139
C       0.620951      0.690468     -0.311605
C      -1.264481     -0.064439     -0.655794
C      -1.005681     -1.118412      0.152781
C       1.550235     -0.358789     -0.599338
N       2.338543     -1.118210     -0.964501
H       1.345762      0.952794      1.612342
H       0.303572      2.172540      1.014587
H      -1.212803     -0.160899     -1.731872
H      -1.804403      0.801713     -0.295383
H      -1.162603     -1.059294      1.222820
H      -0.609376     -2.045823     -0.238240
