12
Extracted from Q-Chem output
C      -1.605273     -0.167792      0.150202
C      -0.579634      0.004872     -0.780707
C       0.335904      1.088684     -0.636931
C       1.372023      0.531096      0.055260
C       1.038862     -0.846436      0.230698
O       0.140798     -1.168763     -0.776114
H      -0.338719     -0.555336      1.026500
H      -2.118529     -1.122220      0.186201
H      -2.173598      0.690711      0.492116
H       0.104388      2.133471     -0.769982
H       2.199777      1.034766      0.530293
H       1.739830     -1.628558      0.496849
