14
smiles: [C:1]([C:2](=[O:6])[H:10])([H:7])([H:8])[H:9].[O:3]=[C:4]([C:5]([H:11])([H:13])[H:14])[H:12]
C       -2.15818300      -0.55049600       0.65758200
C       -0.93464700      -1.35396600       0.33570500
O       -0.03772000       1.42065900      -1.03302200
C        0.93523700       1.35304900      -0.33413000
C        2.16004600       0.55136800      -0.65561000
O        0.03884000      -1.42223000       1.03379900
H       -3.03155400      -1.20763300       0.67715200
H       -2.33093200       0.18121000      -0.13611300
H       -2.04833500      -0.04468100       1.61485900
H       -0.97085200      -1.90950300      -0.62555400
H        3.03249000       1.20975700      -0.67451600
H        0.96992400       1.90787900       0.62759400
H        2.33340900      -0.18037600       0.13790800
H        2.05140400       0.04577300      -1.61314200
