15
Extracted from Q-Chem output
C       2.209448     -0.676662     -0.238900
N       0.924892     -0.027050     -0.201109
C       0.642221      1.291927     -0.088581
C      -0.678121      1.456929      0.248841
C      -1.214949      0.146309      0.308537
C      -2.410998     -0.672890      0.257149
N      -0.193386     -0.702870      0.173594
H       2.940981      0.025368     -0.634539
H       2.161053     -1.543857     -0.896457
H       2.516871     -0.998444      0.758264
H       1.410099      2.025583     -0.288391
H      -1.211901      2.388927      0.317885
H      -0.943501     -1.608867      0.076713
H      -2.716408     -0.839845     -0.775673
H      -3.253766     -0.399709      0.886866
