15
Extracted from Q-Chem output
C      -1.117892      1.205009     -0.403288
C      -0.282596      0.053498      0.105017
C      -1.034560     -0.878253      1.026068
C       0.686962     -0.579422     -0.874166
C       1.648042     -0.029116     -0.127554
O       2.969079      0.075616     -0.052639
O       0.918152      0.592921      0.821962
H      -0.505790      1.888268     -0.991117
H      -1.920111      0.825056     -1.039613
H      -1.570011      1.751858      0.426597
H      -0.364413     -1.637832      1.427483
H      -1.485066     -0.326715      1.853789
H      -1.833326     -1.378151      0.473945
H       0.608361     -1.186121     -1.757240
H       3.363128     -0.407895     -0.782635
