15
Extracted from Q-Chem output
C      -0.929687      1.263559     -0.399060
C      -0.209151      0.042949      0.114637
C      -1.075551     -0.903546      0.904047
C       0.833892     -0.606560     -0.808054
C       1.744385     -0.079938      0.121722
O       2.964023      0.128761     -0.154313
O       0.950376      0.514978      0.993954
H      -0.236055      1.937988     -0.899917
H      -1.685018      0.952765     -1.123023
H      -1.426414      1.796214      0.413749
H      -0.484612     -1.724177      1.310172
H      -1.569563     -0.381751      1.725542
H      -1.843876     -1.320984      0.249911
H       0.797720     -1.623242     -1.170420
H       2.210060     -0.015095     -1.221827
