15
smiles: [C:2]1([H:9])=[C:3]([H:10])[C@@:4]2([O:5][H:12])[C:6]([H:13])([H:14])[C@@:7]12[H:15].[O:1]([H:8])[H:11]
O        2.49323600       0.60783100      -1.59505200
C        0.62935800       0.23328600       1.32439800
C       -0.10843400       1.08664900       0.61380300
C       -1.12108100       0.00745500       0.25499900
O       -2.49493700       0.11537900       0.30089400
C       -0.42465700      -1.15310000      -0.42033900
C       -0.30271800      -0.93903300       1.07710900
H        2.01295800       1.09909100      -2.26273400
H        1.62319900       0.28432500       1.75020200
H        0.04578100       2.09735100       0.25699100
H        1.98610900       0.71107700      -0.78884900
H       -2.81308400       0.36906400      -0.56788800
H       -1.08682800      -1.95895400      -0.72314200
H        0.43599400      -0.98917800      -1.05884500
H       -0.68635100      -1.64586700       1.79783400
