14
Extracted from Q-Chem output
O      -1.090860      1.628743      0.370208
C      -0.694358      0.294157      0.624016
C      -1.357038     -0.676275     -0.339092
C       1.479193     -1.140340      0.519549
C       1.681187     -0.114429     -0.540981
C       0.821996      0.180698      0.636300
H      -0.750042      1.883242     -0.491266
H      -1.043152      0.085737      1.638102
H      -1.074633     -0.462259     -1.374002
H      -2.440293     -0.586930     -0.262814
H      -1.069938     -1.706921     -0.113425
H       1.266996     -0.410141     -1.501808
H       2.655937      0.353901     -0.619519
H       1.284829      0.811071      1.393142
