11
Extracted from Q-Chem output
N       1.964716      0.347880      0.501036
C       0.836989     -0.080796      0.163706
C       0.366815     -1.438157      0.024940
N      -0.939115     -1.455489     -0.058357
C      -1.468979     -0.278325     -0.168311
C      -0.394502      0.891362     -0.269999
O      -0.087422      1.679533     -1.202364
H       2.033358      1.346625      0.285330
H       0.969873     -2.311505     -0.188279
H      -2.463249     -0.088691      0.227721
H      -0.813964      1.384863      0.675686
