16
Extracted from Q-Chem output
C       2.573340      0.050264      0.228049
C       1.067624     -0.067810      0.195138
C      -1.813902      0.340705     -0.524624
C      -2.026404     -0.717525      0.518297
C      -0.736267      0.936884     -1.033859
O       0.588354      0.819374     -0.797541
H       2.872228      1.071620      0.466573
H       2.985845     -0.618431      0.985385
H       2.999663     -0.217349     -0.739447
H       0.765634     -1.092654     -0.046668
H       0.636609      0.199335      1.166252
H      -2.731663      0.706077     -0.975314
H      -1.118403     -1.060908      1.004034
H      -2.698163     -0.348074      1.297419
H      -2.511672     -1.591081      0.074420
H      -0.881919      1.684118     -1.806045
