16
Extracted from Q-Chem output
C       2.183869     -0.150134     -0.166757
C       0.933498     -0.411508      0.563044
C      -1.205540      0.099251     -0.710853
C      -1.866361     -0.553707      0.477351
C      -0.555352      1.322265     -0.641374
O       0.269049      1.664199      0.244077
H       2.459059      0.901623     -0.112364
H       2.974815     -0.725840      0.334495
H       2.131528     -0.472501     -1.204828
H       0.396913     -1.319554      0.338106
H       0.865396     -0.079264      1.588121
H      -1.670434     -0.126644     -1.668466
H      -1.578181     -0.069119      1.411508
H      -2.954977     -0.493161      0.393275
H      -1.623636     -1.620594      0.573910
H      -0.775232      2.070878     -1.419812
