11
Extracted from Q-Chem output
N       1.882563     -0.107893     -0.092496
C       0.534741      0.139193      0.167393
C      -0.024753      1.088582      1.031827
O      -1.389179      0.896645      0.881366
C      -1.723398     -0.052468      0.023493
C      -0.584901     -0.571332     -0.553595
H       2.457475      0.614672      0.316700
H       2.185410     -1.014019      0.233365
H      -0.105664      0.461806     -1.015799
H      -2.769751     -0.256310     -0.136748
H      -0.503160     -1.403629     -1.234761
