15
Extracted from Q-Chem output
O       2.086281      0.935803     -0.669953
C       0.914523      0.421728     -0.167016
C       0.697352     -0.996361      0.354554
C      -0.738785     -0.895443     -0.184235
C      -1.497919      0.153896      0.641205
C      -0.795822      1.325556     -0.078886
C      -0.287238      0.304748     -1.077804
H       2.634981      1.260533      0.047319
H       0.858627     -1.208391      1.413975
H       1.287074     -1.677014     -0.260447
H      -1.235675     -1.803367     -0.519470
H      -2.532995      0.233260      0.296550
H      -1.494895      0.098941      1.732587
H       0.483809      1.237144      0.613658
H      -0.189052      0.415001     -2.150348
