16
Extracted from Q-Chem output
C      -1.184413      1.485329     -0.337282
C      -0.021396      0.583232     -0.123703
C       0.107678     -0.718988      0.152302
C      -0.988978     -1.712310      0.334983
C       1.532617     -1.053251      0.252191
C       2.379230     -0.019752      0.052599
N       1.341402      1.112034     -0.206067
H      -2.113847      0.920358     -0.275082
H      -1.159717      1.963246     -1.321550
H      -1.235206      2.281026      0.412596
H      -0.891649     -2.517584     -0.396442
H      -1.979595     -1.270002      0.228537
H      -0.922981     -2.169803      1.324541
H       1.872712     -2.058094      0.470218
H       1.563461      1.504270     -1.118914
H       1.530514      1.840308      0.479562
