14
Extracted from Q-Chem output
C      -2.118682     -0.072215     -0.160478
C      -0.771660     -0.175167     -0.769253
C       0.943609      0.800010      0.748458
C       2.066731      0.543381      0.107891
N       1.651554     -0.565227     -0.680017
C       0.304749     -0.602965     -0.013898
O       0.231398     -1.021420      1.223127
H      -2.107272      0.540363      0.747133
H      -2.455521     -1.061974      0.168952
H      -2.848243      0.343461     -0.853449
H      -0.582516      0.147637     -1.784207
H       0.412499      1.402825      1.458530
H       3.041002      1.006724      0.116950
H       2.174360     -1.417406     -0.499201
