16
Extracted from Q-Chem output
C       1.627551     -1.215196      0.230151
C       0.600011     -0.674698      1.213548
N       0.383495      0.752894      1.097023
C      -0.647426      1.283358      0.425265
O      -0.893154      2.485584      0.285445
C      -1.751268      0.593489     -0.159092
C      -1.687957      0.400055     -1.612292
H       1.316853     -1.027546     -0.799545
H       1.755295     -2.291435      0.360156
H       2.598642     -0.738527      0.376876
H       0.899158     -0.897845      2.239982
H       1.015883      1.403239      1.533667
H      -0.368273     -1.162113      1.065872
H      -1.001739      1.057355     -2.155903
H      -2.667229      0.370234     -2.089212
H      -1.289730     -0.629160     -1.679324
