10
Extracted from Q-Chem output
O       2.265682     -1.336503     -0.092317
C       1.233119     -0.780453      0.155185
N       1.195307      0.568550      0.550082
N       0.061430      1.264941      0.230206
C      -1.019051      0.699177     -0.215651
C      -1.062627     -0.721301     -0.096942
N      -0.011638     -1.425640      0.143814
H       1.116487      1.741122      0.008028
H      -1.842598      1.327055     -0.522085
H      -2.020700     -1.235178     -0.152321
