11
Extracted from Q-Chem output
C      -1.251828      0.059018     -0.334009
C      -0.670372      0.953757      0.564701
O      -0.441837      1.878291      1.179395
N       1.252029     -0.416811      0.946095
C       1.606880     -0.332634     -0.308996
O       0.980042     -0.824618     -1.305965
H      -0.267130     -0.459272     -0.961091
H      -1.936021      0.596488     -0.989609
H      -1.723138     -0.765997      0.197126
H       0.567091     -1.168682      1.035522
H       2.475787      0.302686     -0.526667
