14
Extracted from Q-Chem output
C      -0.650904      0.395189      0.080463
C      -0.290944      1.067795     -1.215347
C       0.651952      1.988105     -1.332854
C       0.544955     -1.160538      2.244968
C       0.230193     -1.792992      1.014021
C      -0.357536     -1.062134      0.030012
H      -0.137387      0.831702      0.937944
H      -1.727996      0.513804      0.257518
H      -0.849591      0.759160     -2.096650
H       1.232340      2.314092     -0.476432
H       0.874929      2.449462     -2.287120
H       0.707743     -1.944997      3.004879
H       0.365811     -2.859455      0.823023
H      -0.674697     -1.577907     -0.876975
