19
smiles: [C:1]([C:2]([C@@:3]1([H:13])[C@@:4]2([H:15])[C:5]([H:16])([H:17])[C@@:6]12[H:18])([H:11])[H:12])([H:8])([H:9])[H:10].[O:7]([H:14])[H:19]
C       -2.01597900       0.31312700      -0.64741800
C       -1.23814500       0.24470800       0.66062700
C        0.04183800       1.05066900       0.60161600
C        1.26491900       0.75605800       1.40491600
C        1.64655500      -0.56420900       0.82432300
C        1.29324200       0.57781900      -0.06786900
O        0.49523400      -2.01912000      -1.87773600
H       -2.26814800       1.34562400      -0.90318400
H       -1.42407400      -0.09516700      -1.46969400
H       -2.94840200      -0.25140500      -0.59018800
H       -1.01955200      -0.79686300       0.90504700
H       -1.85149000       0.62783000       1.48201700
H       -0.14072500       2.11671300       0.46213100
H        0.80001000      -1.28249000      -1.34649300
H        1.86112600       1.41969700       2.00923300
H        0.98364500      -1.42030800       0.91504500
H        2.69968000      -0.82227900       0.87664900
H        1.91253200       1.08409300      -0.78965100
H        0.28175800      -1.64475500      -2.73346300
