11
Extracted from Q-Chem output
O      -0.384227      1.282318     -0.956875
C      -0.182395      0.732267      0.314850
C      -0.457269     -1.544547     -0.677091
C      -0.133841     -0.778979      0.349321
C       1.039628      1.281367      0.948613
N       1.997985      1.693327      1.424808
H       0.363209      1.052359     -1.516659
H      -1.028141      1.071296      0.921400
H      -0.414835     -2.623165     -0.599124
H      -0.787898     -1.123753     -1.619084
H       0.180631     -1.210588      1.294306
