11
Extracted from Q-Chem output
O      -0.516751      1.375129     -1.064378
C      -0.456971      0.479575     -0.006022
C      -0.382447     -0.998548     -0.399869
C       0.947941     -1.025781      0.260456
C       0.808145      0.807447      0.827234
N       1.468748      1.461589      1.517465
H       0.253231      1.256781     -1.629257
H      -1.292792      0.674008      0.662857
H      -1.200379     -1.585814      0.016948
H      -0.356044     -1.089402     -1.484760
H       0.839889     -1.421694      1.283900
