11
smiles: [C-:4]#[O+:5].[C:1]([C:2](=[O:3])[H:9])([H:6])([H:7])[H:8].[H:10][H:11]
C       -1.33558000       0.61491100      -0.05542800
C       -0.97640500      -0.50962700      -0.97889700
O        0.14023000      -0.90562600      -1.16854400
C        2.48356800       1.05838700      -0.15366500
O        3.35103700       0.41943800      -0.47195300
H       -1.84151200       1.40169200      -0.62124700
H       -2.04613200       0.25788700       0.69462000
H       -0.44705500       1.01536400       0.42870000
H       -1.83267400      -0.98207900      -1.50572500
H        1.10967100      -1.49862800       2.05086400
H        1.00110900      -1.38701300       1.32267700
