11
Extracted from Q-Chem output
C      -1.356011      0.608089      0.087824
C      -0.400532     -0.417685     -0.473310
O       0.569727     -0.048512     -1.197907
C       2.147336     -0.152312     -0.173275
O       3.141330      0.134664     -0.634567
H      -1.997363      0.963569     -0.722251
H      -1.989915      0.185703      0.868146
H      -0.807170      1.463555      0.481795
H      -0.823659     -1.416023     -0.656651
H       0.216804     -0.881605      0.822817
H       1.086839     -0.702872      0.794436
