11
Extracted from Q-Chem output
N       2.235920     -0.443345     -0.670695
C       1.014556     -0.234553     -0.365766
C       0.191817      0.897377     -0.549968
N      -1.045095      0.649033      0.204130
C      -0.908327     -0.782571      0.588996
N       0.189274     -1.277210      0.279248
H       2.491517     -1.395666     -0.436000
H      -1.154960      1.211544      1.054546
H       0.514496      1.921058     -0.623216
H      -1.895342      0.775750     -0.347530
H      -1.751114     -1.260617      1.074070
