11
Extracted from Q-Chem output
N       2.029061     -0.191449     -0.182346
C       0.644177     -0.116566     -0.059942
C      -0.200177      0.918912     -0.355329
N      -1.465437      0.423008     -0.103102
C      -1.323601     -0.848647      0.312729
N      -0.064871     -1.208401      0.354613
H       2.391969     -0.990125      0.314113
H       2.513144      0.652018      0.076996
H      -0.032027      1.915946     -0.722579
H      -2.329584      0.919858     -0.211712
H      -2.162655     -1.474555      0.576559
