11
Extracted from Q-Chem output
C      -1.889168      0.247502      0.437970
C      -0.581860      0.225884      0.258731
O       0.217728      1.087822     -0.463751
N       0.492985     -0.568332      0.689175
C       1.341864      0.238058     -0.181211
O       1.883247     -0.356648     -1.285731
H       1.171651     -0.705000     -1.833808
H      -2.484691      1.014474     -0.033272
H      -2.363054     -0.492504      1.064615
H       0.472346     -1.569918      0.574825
H       2.147696      0.769453      0.324244
