16
Extracted from Q-Chem output
C      -1.337777      0.060685     -0.431925
C      -0.611523     -0.529964      0.803469
O      -0.321642     -1.902920      0.802094
C       0.615807      0.374534      0.515424
C       1.793368     -0.322428     -0.151228
C      -0.264427      1.137991     -0.455419
N      -0.111459      2.269753     -0.979064
H      -0.905689      2.509205     -1.571204
H      -2.374728      0.381109     -0.325336
H      -1.246808     -0.607432     -1.292163
H      -1.105735     -0.233404      1.734473
H      -1.122821     -2.391945      0.995204
H       0.956436      0.965360      1.367316
H       2.519537      0.421605     -0.479803
H       1.477807     -0.901663     -1.020281
H       2.277944     -1.007912      0.544159
