16
Extracted from Q-Chem output
C      -1.389869      0.017313     -0.554815
C      -0.651148     -0.395176      0.709504
O      -0.357351     -1.765395      0.870430
C       0.648433      0.422360      0.543505
C       1.776469     -0.319259     -0.164499
C       0.008883      1.440935     -0.342710
N      -0.130546      2.508113     -0.889620
H      -1.050272      1.591618     -1.039592
H      -2.473513      0.108324     -0.461550
H      -1.124445     -0.608501     -1.409241
H      -1.189834     -0.019117      1.587600
H      -1.161965     -2.263869      0.719129
H       1.013313      0.885136      1.463383
H       2.598332      0.361426     -0.385687
H       1.430124     -0.763913     -1.097806
H       2.137903     -1.122894      0.474977
