13
Extracted from Q-Chem output
C      -2.344455     -0.148708     -0.156300
O      -1.070929     -0.737393     -0.418332
C       0.027785     -0.087995     -0.078710
O      -0.210739      1.087454      0.508682
C       1.244887     -0.626801     -0.333609
C       2.478766      0.022374      0.011710
O       3.588870     -0.410873     -0.192479
H      -2.454944      0.794226     -0.691565
H      -3.069797     -0.871007     -0.520012
H      -2.486461      0.016413      0.911551
H       1.280852     -1.590246     -0.820379
H       0.623416      1.513192      0.732513
H       2.390117      1.019798      0.516051
