13
Extracted from Q-Chem output
C      -2.326114      0.005547     -0.364884
O      -1.024442     -0.580853     -0.546462
C      -0.051037     -0.112532      0.165049
O      -0.177003      0.884966      0.946480
C       1.286329     -0.633766      0.241389
C       2.333154      0.203904     -0.340072
O       3.457231     -0.167958     -0.575317
H      -2.332412      1.019410     -0.760503
H      -3.007757     -0.626971     -0.925394
H      -2.584927      0.018011      0.692886
H       1.458598     -1.702531      0.199611
H       0.928582      0.414348      1.269710
H       2.037169      1.258858     -0.533373
