14
Extracted from Q-Chem output
C      -1.540701      0.225423     -0.475533
C      -0.724110     -0.951297      0.516793
C      -1.370698     -2.004853      0.749520
O       1.163302     -0.092084     -1.562866
C       1.278255      0.277758     -0.404430
N       2.334004      1.066225     -0.011627
C       0.339931     -0.039079      0.664455
H      -1.653380      1.182887      0.021008
H      -2.501492     -0.247388     -0.623029
H      -0.965408      0.291865     -1.392758
H      -2.365400     -2.394821      0.637782
H       3.092804      1.129792     -0.667927
H       2.567958      1.142760      0.961668
H       0.386251      0.522070      1.591527
