18
Extracted from Q-Chem output
C       2.394513     -0.034980      0.749740
C       1.531954     -0.298334     -0.473671
C       0.218687     -0.998403     -0.158808
O      -0.633807     -1.178515     -1.060739
C      -2.203992      0.275901     -1.172823
C      -2.165316      1.059894     -0.052820
H       3.346764      0.417703      0.471553
H       2.614254     -0.963518      1.282428
H       1.895929      0.639189      1.450369
H       2.062465     -0.943345     -1.181094
H       1.305260      0.625646     -1.012600
H       0.271280     -1.742274      0.658936
H      -0.285956     -0.018412      0.797755
H      -2.852680     -0.584614     -1.232043
H      -1.766577      0.607767     -2.102571
H      -1.776130      2.070529     -0.115855
H      -0.995410      0.497286      0.606439
H      -2.856632      0.867543      0.760573
