14
Extracted from Q-Chem output
C       2.168578     -0.125847     -0.450348
C       0.717854     -0.021505     -0.081106
C      -0.291205     -0.314837     -0.993445
C      -1.891720      0.211438      0.690972
C      -1.613425     -0.196277     -0.601854
N       0.448706      0.371167      1.164747
C      -0.822038      0.481291      1.530594
H       2.300982     -0.485613     -1.470631
H       2.681040     -0.804440      0.232826
H       2.648261      0.849979     -0.358282
H      -0.037643     -0.630581     -1.998114
H      -2.908911      0.319273      1.045011
H      -2.413647     -0.419110     -1.298011
H      -0.996346      0.802946      2.553366
