12
Extracted from Q-Chem output
C      -1.685330     -0.386598     -0.335243
C      -0.491215     -0.048041      0.458469
O       0.932187     -1.121215      0.190526
C       1.678288      0.112884      0.074833
C       0.458063      1.011454      0.180821
O       0.313390      2.200651      0.062229
H      -2.355485      0.469679     -0.195046
H      -1.486371     -0.472581     -1.407319
H      -2.203932     -1.273793      0.024493
H       0.319637     -0.937884      1.096476
H       2.125819      0.142026     -0.917932
H       2.444029      0.226725      0.842374
