13
smiles: [C:1]([O:3][H:9])([H:6])([H:7])[H:8].[C:2]1[C:4]([H:10])([H:11])[C:5]1([H:12])[H:13]
C       -1.81552400      -0.65628800      -0.02162200
C        0.50840600       0.22008800       0.73719400
O       -0.96723200       0.45907000      -0.19080300
C        1.46007900      -0.43894600      -0.19617700
C        1.54231700       1.02203600       0.03098800
H       -1.86900100      -0.98191900       1.02356100
H       -1.39405900      -1.47062500      -0.60987900
H       -2.83215000      -0.46288300      -0.38275100
H       -1.31133700       1.18865800       0.32512100
H        2.18258800      -1.10731200       0.26124600
H        1.02513500      -0.83319300      -1.10908800
H        2.32599400       1.43765600       0.65621000
H        1.16901700       1.71872200      -0.71291100
