15
Extracted from Q-Chem output
C       2.242947      0.653788     -0.314927
C       0.844052      0.318015      0.045253
O      -0.110664      1.091727     -0.559568
C      -1.367165      0.593895     -0.163623
C      -1.738841     -0.791171     -0.573364
C      -1.144806     -0.545156      0.798126
C       0.337057     -0.608318      0.859346
H       2.442621      1.708258     -0.114179
H       2.936743      0.044175      0.261359
H       2.419667      0.479169     -1.378103
H      -2.112275      1.369246     -0.053940
H      -2.800113     -0.995818     -0.629080
H      -1.125565     -1.301090     -1.305199
H      -1.750015     -0.699545      1.681898
H       0.914281     -1.297614      1.455098
