14
Extracted from Q-Chem output
C      -1.668671     -0.171867      0.177453
C      -0.588686      0.454710     -0.669830
C       0.466349      1.246499      0.043053
O       1.741713      0.684055     -0.118442
C       1.782666     -0.540309      0.295594
N       0.639238     -1.014766      0.820103
C      -0.452787     -0.948797     -0.175239
H      -1.790042      0.183534      1.193166
H      -2.581207     -0.462634     -0.324472
H      -0.797637      0.663505     -1.714316
H       0.346734      0.061647      1.235224
H       0.544537      2.306636     -0.168959
H       2.765279     -0.980118      0.407106
H      -0.518513     -1.817031     -0.814644
