23
Extracted from Q-Chem output
C       2.349175      0.084495     -0.905389
C       1.627675      0.053488      0.436342
C       0.236369     -0.590909      0.414771
C      -0.342881     -0.607355      1.828561
C      -0.712899      0.033731     -0.629031
C      -0.976517      1.521383     -0.403857
C      -2.030064     -0.732800     -0.733683
H       2.385264     -0.910486     -1.357281
H       3.377236      0.431332     -0.786465
H       1.861357      0.752318     -1.618183
H       2.239225     -0.501941      1.154397
H       1.554048      1.069878      0.838340
H       0.375865     -1.636038      0.106313
H       0.341082     -1.112555      2.513879
H      -0.495666      0.405190      2.210739
H      -1.298151     -1.131761      1.876033
H      -0.213935     -0.065521     -1.599014
H      -1.615287      1.919106     -1.195418
H      -1.487633      1.698516      0.545714
H      -0.054749      2.106284     -0.401859
H      -2.609547     -0.389412     -1.593433
H      -1.858128     -1.805335     -0.854936
H      -2.651840     -0.591608      0.153460
