23
Extracted from Q-Chem output
C       2.480589      0.216226     -0.858829
C       1.607662      0.064428      0.361307
C       0.589919     -0.858433      0.396642
C      -0.004931     -1.277453      1.710693
C      -1.234703      0.198912     -0.874533
C      -1.029668      1.556650     -0.806412
C      -2.389625     -0.471369     -0.186584
H       3.242254     -0.566379     -0.899004
H       2.991253      1.180134     -0.875267
H       1.881327      0.141199     -1.769407
H       2.054903      0.351495      1.311461
H       0.924040      1.404481      0.339803
H       0.475373     -1.537363     -0.439417
H       0.659849     -1.971017      2.235320
H      -0.156912     -0.415208      2.365265
H      -0.963327     -1.782387      1.600023
H      -0.846102     -0.316274     -1.745897
H       0.211622      1.798082     -0.004244
H      -0.595594      2.074310     -1.654624
H      -1.679483      2.162813     -0.181202
H      -3.308362     -0.322678     -0.763011
H      -2.248087     -1.548642     -0.090358
H      -2.561773     -0.060351      0.810690
