14
Extracted from Q-Chem output
O       2.140181      0.776721      0.585989
C       1.157123      0.103161     -0.050380
C      -0.187332      0.446406      0.194603
C      -1.295489      0.731318     -0.891688
O      -2.209415     -0.192919     -0.351940
C      -1.061857     -0.807006      0.267077
H       2.995047      0.404574      0.362064
H       0.782513     -1.347337      1.212700
H       1.435871     -0.473020     -0.925816
H      -0.314486      1.100860      1.055506
H      -1.664690      1.756940     -0.872060
H      -0.961788      0.446357     -1.893667
H      -0.039261     -1.432789      1.402813
H      -0.709385     -1.638147     -0.367421
