12
Extracted from Q-Chem output
O      -2.387929      0.636461     -0.406668
C      -1.525562     -0.355101      0.079998
C      -0.080651      0.027188     -0.006212
N       0.255112      1.133516     -0.600753
O       1.622399      1.208362     -0.550605
C       2.084391      0.129828      0.082364
C       1.067398     -0.671090      0.459738
H      -1.863575      1.285406     -0.886358
H      -1.777117     -0.561503      1.125512
H      -1.665315     -1.292533     -0.474671
H       3.155385      0.067998      0.191232
H       1.115465     -1.608532      0.986423
