13
Extracted from Q-Chem output
O       1.969668     -1.613229     -0.200959
C       1.693544     -0.450103     -0.343862
C       0.340600      0.120338     -0.109558
C      -0.494951     -0.572014      0.985971
C      -0.843959     -0.821889     -0.405389
C       0.224632      1.556795     -0.336833
O      -1.007893      1.951031     -0.100564
H       2.448363      0.290889     -0.666280
H      -1.116229      0.092291      1.571047
H       0.045728     -1.340038      1.523098
H      -1.716782     -0.337648     -0.821623
H      -0.547608     -1.765222     -0.844707
H      -1.052279      2.898451     -0.256954
