13
Extracted from Q-Chem output
C       1.499364      0.577912      0.078086
C       0.833551     -0.754117     -0.101710
C      -0.352947     -0.929612      0.764755
C      -0.996676     -0.432791     -0.536182
C      -1.509587      0.915669     -0.528148
N      -1.903705      1.993734     -0.532929
H       1.976936      0.938397     -0.832345
H       2.308643      0.342325      0.780035
H       0.901581      1.379566      0.529998
H      -0.070883     -0.550726     -1.273995
H      -0.492834     -0.239182      1.596862
H      -0.640325     -1.946058      1.015251
H      -1.671849     -1.153075     -0.989136
