13
Extracted from Q-Chem output
C      -1.380884     -0.507910      0.007270
C      -1.130597      1.031800      0.122619
C       0.323868      0.625298      0.037920
N       1.642938      0.807273      0.008790
C       2.329033     -0.423906     -0.116785
C       1.301335     -1.345325     -0.157934
N       0.090150     -0.660037     -0.060549
H      -1.889454     -0.835800     -0.898052
H      -1.821071     -0.977087      0.885827
H      -1.505272      1.622355     -0.712234
H      -1.444314      1.478542      1.065073
H       2.114821      1.690718      0.064902
H       1.337220     -2.417636     -0.248984
