13
Extracted from Q-Chem output
C      -1.374978     -0.530367     -0.026266
C      -1.223947      1.017626      0.118422
C       0.259388      0.713832      0.058103
N       1.526372      1.033399      0.293090
C       2.276848     -0.234359      0.147595
C       1.330626     -1.209355     -0.102643
N       0.104553     -0.585923     -0.102895
H      -1.860566     -0.889056     -0.931756
H      -1.770196     -1.039202      0.851007
H      -1.623342      1.600197     -0.709949
H      -1.577724      1.424081      1.064277
H       2.479260      0.993357     -0.383806
H       1.448887     -2.265549     -0.276083
