12
Extracted from Q-Chem output
C      -0.548969     -2.127583     -0.546098
O      -0.276707     -0.907063     -1.219208
C       0.022374      0.140962     -0.452537
N       0.066797      0.046136      0.859905
O       0.384927      1.218008      1.386204
C       0.552850      2.133647      0.268850
C       0.316297      1.437669     -0.973220
H       0.312607     -2.447679      0.044602
H      -1.410085     -2.021797      0.118054
H      -0.762328     -2.856450     -1.323712
H      -0.150956      2.960504      0.412496
H       1.567539      2.542073      0.323948
