12
Extracted from Q-Chem output
C      -0.470620     -2.121256     -0.564411
O      -0.205893     -0.879652     -1.205178
C      -0.019262      0.165226     -0.407286
N      -0.050889      0.067923      0.892272
O       0.163257      1.300447      1.411468
C       0.384704      2.151165      0.322935
C       0.176415      1.510353     -0.929797
H       0.367445     -2.414487      0.071434
H      -1.371873     -2.054949      0.048940
H      -0.611515     -2.845390     -1.362609
H       0.232127      3.196743      0.560962
H       1.467427      2.019252     -0.053765
