14
Extracted from Q-Chem output
O       2.321487     -0.501623      1.099760
C       1.197813      0.091013      0.538614
C      -1.176799      1.955649     -1.242630
N      -1.383533      0.886532     -0.525153
C      -0.980858     -0.490768     -0.789497
C       0.266461     -0.941703     -0.048944
O       0.529989     -2.115327      0.033228
H       2.216195     -1.456069      0.986114
H       0.641470      0.674881      1.285053
H       1.472307      0.800318     -0.254691
H      -0.630847      1.621172     -2.149025
H      -1.885748      1.011702      0.345335
H      -0.771309     -0.585938     -1.857453
H      -1.787332     -1.184900     -0.547071
