16
Extracted from Q-Chem output
C       1.508673     -0.120935      0.528563
C       0.777535      0.194665     -0.726675
C      -0.393564     -0.774679     -1.016063
C      -1.461287     -0.329871     -0.044978
C      -1.215679      0.963040      0.348737
C       0.108349      1.272820      0.068446
H       2.243263      0.614837      0.830814
H       1.818862     -1.136607      0.746848
H       0.248085     -0.705749      1.433506
H       1.352406      0.467521     -1.611462
H      -0.750504     -0.622214     -2.038523
H      -0.128873     -1.828638     -0.916679
H      -0.548679     -0.977318      1.335073
H      -2.389949     -0.867732      0.094875
H      -1.863466      1.548328      0.987296
H       0.603173      2.198889      0.322128
