16
Extracted from Q-Chem output
C      -1.626628     -1.097867      0.038315
C      -0.547447     -0.259576     -0.616674
C      -0.596902      1.291055     -0.464236
C       0.898728      1.309638     -0.042307
C       0.807010     -0.184719      0.040673
N       1.538996     -1.036462      0.606362
O       2.734839     -0.720836      1.246185
H      -2.588282     -0.939112     -0.453839
H      -1.736381     -0.837093      1.093020
H      -1.389615     -2.161440     -0.022372
H      -0.436355     -0.536935     -1.669589
H      -0.854640      1.852560     -1.360299
H      -1.258376      1.594540      0.347525
H       1.160259      1.810768      0.888946
H       1.581853      1.646779     -0.823556
H       2.127164     -1.849011      1.098097
