11
Extracted from Q-Chem output
C      -0.257062      1.302880      0.100035
C      -1.208228      0.350359     -0.045660
C      -0.849400     -1.042677      0.004803
N       0.358017     -1.460369      0.123694
C       1.356697     -0.453951      0.124676
C       1.148517      0.976119      0.216900
H      -0.549396      2.347226      0.156326
H      -2.256813      0.607148     -0.160041
H      -1.638385     -1.791551     -0.024711
H       2.330873     -0.842628      0.412438
H       1.532124     -0.092198     -0.953238
