16
Extracted from Q-Chem output
C       1.902260      0.911213     -0.154855
O       0.672343      0.533117      0.403425
C      -0.482164     -0.530359     -0.763591
C      -0.150212     -1.726948     -0.100966
C      -1.754814      0.202205     -0.492894
O      -1.647204      1.582912     -0.683970
H       2.349413      0.092979     -0.741792
H       1.781415      1.776263     -0.814799
H       2.610155      1.181539      0.633621
H       0.029176     -0.252051     -1.680854
H       0.544499     -0.751037      0.548549
H       0.519014     -2.423655     -0.590154
H      -0.885783     -2.157187      0.570363
H      -2.497967     -0.173152     -1.205294
H      -2.107839     -0.051895      0.514662
H      -0.894690      1.850312     -0.140681
