16
Extracted from Q-Chem output
C      -1.577573     -1.239234     -0.079611
C      -0.581827     -0.247186     -0.645096
C      -0.743509      1.263278     -0.301627
C       0.756119      1.341708      0.090737
C       0.786424     -0.160646     -0.009835
N       1.550621     -1.080815      0.382008
O       2.696109     -0.563274      0.985537
H      -2.560886     -1.104141     -0.535652
H      -1.681478     -1.111058      1.000111
H      -1.254561     -2.264716     -0.264449
H      -0.480620     -0.385008     -1.726143
H      -1.066268      1.910404     -1.115593
H      -1.403808      1.415472      0.552962
H       1.002293      1.751306      1.070023
H       1.387581      1.826023     -0.656225
H       3.171383     -1.352113      1.252853
