15
smiles: [C:1]([C@@:2]1([H:11])[C:3]([H:13])=[N+:4]1[C-:5]([C:6]#[N:7])[H:15])([H:8])([H:9])[H:10].[H:12][H:14]
C       -1.64830200      -1.18793100       0.17177400
C       -0.90517400       0.04517000      -0.26503400
C       -0.71573900       1.22435200       0.58735400
N        0.29410900       0.44572800       0.49362300
C        1.52590800       0.02833600       0.73182700
C        1.95138300      -1.17719600       0.14377500
N        2.29708200      -2.16791400      -0.33724500
H       -1.66563600      -1.26581200       1.25938200
H       -1.18877400      -2.08682300      -0.24236800
H       -2.67754000      -1.13603300      -0.18803800
H       -0.77788500       0.15234300      -1.34387800
H        0.92147400       2.42003100      -1.60834300
H       -0.99290300       2.16653800       1.01961400
H        1.45694600       1.91497700      -1.72034700
H        2.16274400       0.60969400       1.37838900
