15
Extracted from Q-Chem output
C      -1.784873     -1.068714      0.250551
C      -0.827025     -0.054070     -0.309278
C      -0.554820      1.291555      0.236055
N       0.310833      0.329699      0.517234
C       1.638625      0.241741      0.314912
C       2.164019     -1.010262     -0.118938
N       2.593306     -2.004558     -0.507881
H      -1.928785     -0.918615      1.320701
H      -1.414061     -2.081822      0.083474
H      -2.753045     -0.978444     -0.244693
H      -0.595862     -0.164126     -1.371873
H       0.553832      1.899559     -0.864688
H      -1.007679      2.094091      0.794294
H       1.337283      1.536497     -0.951433
H       2.273842      0.862997      0.932847
