9
Extracted from Q-Chem output
N      -1.769663      0.021663     -0.169767
C      -0.521133     -0.028937      0.038918
N       0.131235     -1.127937      0.574917
O       1.518421     -0.928386      0.453226
N       1.719745      0.344607      0.055517
C       0.594003      0.903355     -0.164304
H      -0.110468     -2.055129      0.255559
H      -2.042204      0.929425     -0.528159
H       0.542149      1.925370     -0.505930
