18
Extracted from Q-Chem output
C       2.534117     -0.293621     -0.091654
N       1.416699      0.608011     -0.281284
C       0.177268      0.172998      0.273643
O       0.065799      0.412035      1.644301
C      -1.066779      0.354553     -0.521496
C      -0.536868     -1.043726     -0.262938
C      -2.345039      0.822065      0.119436
H       3.419047      0.115628     -0.579298
H       2.359120     -1.308674     -0.478791
H       2.765786     -0.374704      0.972946
H       1.310710      0.885372     -1.244042
H      -0.911017      0.720584     -1.532335
H      -0.084273     -1.581733     -1.086771
H      -1.096469     -1.656376      0.434180
H       0.464075     -0.320858      2.116554
H      -3.211756      0.447332     -0.429062
H      -2.411520      0.473924      1.149885
H      -2.397336      1.912374      0.135205
