18
Extracted from Q-Chem output
C       2.773243      0.229088      0.069457
N       1.428536      0.363627     -0.455615
C       0.317201      0.111524      0.203900
O       0.420017      0.014053      1.519711
C      -0.988951     -0.032672     -0.480561
C      -1.154950     -1.470183     -0.053588
C      -2.052908      0.917359      0.050487
H       3.239554      1.206009      0.201943
H       3.377016     -0.368700     -0.613962
H       2.721069     -0.270027      1.032871
H       1.317812      0.577941     -1.432941
H      -0.851967      0.141008     -1.558533
H      -0.824986     -2.198396     -0.788386
H      -2.137716     -1.693747      0.358115
H      -0.271853     -0.686206      1.671952
H      -2.993638      0.703930     -0.458509
H      -2.212419      0.758888      1.119054
H      -1.798883      1.968010     -0.108748
