14
smiles: [C:1]([O:3][C:2](=[O:6])[H:10])([H:7])([H:8])[H:9].[C:4](=[C:5]([H:13])[H:14])([H:11])[H:12]
C       -2.01091700       0.00509400      -0.17146000
C       -0.46237000      -0.89855400       1.37249200
O       -1.24810400       0.12432000       1.02030200
C        1.49426500       1.16441200      -0.50267000
C        2.06293100       0.00453300      -0.78317400
O        0.21015000      -0.88692600       2.35271500
H       -1.85402200      -0.96485000      -0.65083100
H       -1.71421500       0.79769700      -0.85753400
H       -3.06547700       0.11498200       0.07895700
H       -0.50606300      -1.74564100       0.66265300
H        1.26807500       1.88938200      -1.27621100
H        1.23168100       1.43798400       0.51297000
H        2.28915300      -0.72038400      -0.00958800
H        2.32558500      -0.26908000      -1.79878300
