14
Extracted from Q-Chem output
C      -1.972189     -0.375943      0.426148
C      -0.581443     -0.465688     -0.136067
O      -0.253145      0.708543     -0.853644
C       1.117837      0.992791     -0.627302
C       1.575006     -0.130381      0.307679
O       0.367058     -0.566543      0.892411
H      -2.213195     -1.286296      0.975257
H      -2.690132     -0.251202     -0.384223
H      -2.038549      0.480235      1.097294
H      -0.476115     -1.332267     -0.811980
H       1.666889      0.998825     -1.572336
H       1.201796      1.976833     -0.159464
H       2.248183      0.199074      1.097290
H       2.047998     -0.947982     -0.251063
