11
Extracted from Q-Chem output
C       3.070356      0.828454      1.420902
C       2.012008      0.424697      0.876512
C       0.835991      0.116565      0.300503
C      -0.318754      0.982845      0.096260
C      -1.261768      0.267385     -0.510480
C      -0.752188     -1.112282     -0.727782
O       0.567599     -1.092292     -0.183091
H      -0.686415     -1.388820     -1.783417
H      -0.339866      2.015025      0.406783
H      -2.246121      0.594872     -0.813147
H      -1.331370     -1.875930     -0.201977
