17
Extracted from Q-Chem output
C       1.616812     -1.135250     -0.155688
C       0.338642     -0.497689      0.116757
C      -1.191229     -0.900025      0.032260
C      -1.537077      0.504073     -0.325748
C      -0.527702      1.408753      0.197327
C       0.242881      0.597769      1.226386
C       0.337931      0.642117     -0.884608
H       2.170028     -1.676379      0.610637
H       1.721273     -1.550435     -1.155494
H       1.641159      0.494459     -0.711038
H      -1.576158     -1.264498      0.985777
H      -1.432987     -1.612596     -0.758400
H      -2.217553      0.793765     -1.115489
H      -0.665395      2.483671      0.193110
H      -0.275457      0.326158      2.147129
H       1.220254      1.023861      1.440872
H       0.084203      0.497300     -1.935055
