19
smiles: [C:1](=[C:2]([H:11])[H:12])([H:9])[H:10].[C:3](=[C:4]([H:14])[H:15])([C:5]([C:6]([O:7][H:19])([H:17])[H:18])([H:8])[H:16])[H:13]
C       -2.01197600       1.07525600       1.41850600
C       -2.68228800       1.01673500       0.28075100
C        0.64139400       0.16624100      -1.16600500
C        1.26435900       1.20495900      -0.62671100
C        0.41644400      -1.17750500      -0.53027200
C        1.23681500      -1.45223900       0.71891900
O        2.62153100      -1.55129600       0.45501300
H       -0.64876200      -1.27614700      -0.29043800
H       -2.50896300       0.97947100       2.37718800
H       -0.93811900       1.22265700       1.43944300
H       -2.18535500       1.11242600      -0.67796700
H       -3.75613600       0.86924200       0.25984200
H        0.23521900       0.27617400      -2.16856100
H        1.36145600       2.13813900      -1.16719500
H        1.68732900       1.18099400       0.37251900
H        0.63067300      -1.95724000      -1.26799200
H        1.03605300      -0.68888700       1.48289000
H        0.94257300      -2.41355500       1.14247400
H        2.88835200      -0.77589300      -0.04451400
