11
smiles: [H:8][H:9].[N:1](=[C:2]1/[C:3]#[C:4][C:5]([H:10])([H:11])[O:6]1)\[H:7]
N        1.86381800       0.48363700      -0.36004700
C        0.73700000       0.01605000      -0.09518200
C       -0.59242000       0.60328900      -0.07077300
C       -1.64565000       0.04297600       0.20505400
C       -1.06241100      -1.33168800       0.47573900
O        0.40643600      -1.26261600       0.27006700
H        2.58483400      -0.22720600      -0.27416300
H        0.51443200       2.58851400      -0.73979600
H       -0.17063500       2.87929500      -0.71647400
H       -1.44860800      -2.07608100      -0.21780600
H       -1.22880400      -1.64170400       1.50557200
