11
Extracted from Q-Chem output
C       1.439867     -0.291242      0.017994
C       0.081659      0.365649      0.209013
O      -0.180614      1.201256     -0.895076
C      -0.952538     -0.648577      0.581047
O      -2.030979     -0.416642     -0.129069
H       2.196346      0.476114     -0.143301
H       1.703838     -0.883317      0.893434
H       1.420041     -0.942315     -0.857110
H       0.119773      0.962466      1.143048
H      -1.131228      1.243439     -1.027599
H      -2.714089     -1.042837      0.130886
