14
Extracted from Q-Chem output
C      -0.512344     -0.423386     -1.159334
C      -0.255939      0.518831      0.030606
C      -1.077222      0.255949      1.291524
C       0.784490     -0.942640     -1.679713
C       1.749027     -0.499557     -0.695649
C       1.209472      0.331081      0.221123
H      -1.116563      0.010018     -1.960726
H      -1.069898     -1.319321     -0.848421
H      -0.429590      1.555112     -0.285824
H      -2.141191      0.385207      1.086900
H      -0.807192      0.940296      2.098195
H      -0.924146     -0.765707      1.646823
H       2.798922     -0.766434     -0.729100
H       1.755417      0.828086      1.019729
