14
Extracted from Q-Chem output
C      -0.668312     -0.276771     -1.105070
C      -0.353940      0.838449     -0.094244
C      -0.758580     -0.025716      1.111475
C       0.169919     -1.278045     -0.272633
C       1.465782     -0.506353     -0.149284
C       1.166974      0.788625     -0.086747
H      -0.260279     -0.131461     -2.104636
H      -1.727346     -0.536326     -1.164087
H      -0.810292      1.830387     -0.165445
H      -1.832187     -0.186468      1.226759
H      -0.254407      0.155254      2.060291
H      -0.421029     -1.308006      0.821009
H       2.439291     -0.974195     -0.103765
H       1.824875      1.641163      0.022688
