12
Extracted from Q-Chem output
C       1.992725     -0.181217     -0.067214
C       1.972821      0.713741     -0.935027
C       0.309646      0.234389     -0.764018
C      -0.537037     -0.717123      0.145692
C      -1.193156      0.580587      0.615472
O      -0.387457      1.356931     -0.284010
H       2.125015     -0.908326      0.704965
H       0.149443      0.042498     -1.821020
H      -1.176535     -1.369906     -0.444357
H      -0.042329     -1.300613      0.914878
H      -1.002278      0.853947      1.655814
H      -2.257527      0.687599      0.398188
