17
Extracted from Q-Chem output
C       1.126349     -1.002868     -0.423887
C       0.990641      0.395661      0.196883
C       0.115773      1.068396     -0.858582
C      -0.918891     -0.065154     -0.915689
C      -1.255156     -0.278965      0.620435
C      -0.002534      0.235828      1.353772
C      -0.214709     -1.355284     -0.995624
H       1.743047     -0.965829     -1.337541
H       1.561911     -1.781121      0.205370
H       1.925163      0.893210      0.452240
H       0.623884      1.214426     -1.814470
H      -0.306462      2.021110     -0.532309
H      -1.806791      0.061186     -1.529648
H      -2.163302      0.278793      0.843303
H      -1.468508     -1.329571      0.841528
H      -0.192159      1.195174      1.838225
H       0.348468     -0.460455      2.116605
