16
smiles: [C:1]([O:2][C:3]([C:4]([H:12])([H:13])[H:14])([H:10])[H:11])([H:7])([H:8])[H:9].[C:5]([O:6][H:16])[H:15]
C        1.66137100       0.74501600      -0.63160700
O        0.36736900       0.20886900      -0.60391800
C        0.33215100      -1.09830000      -0.08383900
C       -1.09526200      -1.59269500      -0.10131000
C       -1.45361600       2.14632700       1.25828100
O       -1.50063200       2.00519700      -0.03473200
H        2.33444500       0.13833400      -1.25268100
H        1.59570600       1.74558500      -1.05732600
H        2.09158800       0.81423800       0.37686900
H        0.73173000      -1.10330600       0.94171800
H        0.97712700      -1.75624800      -0.68580000
H       -1.48493500      -1.60123100      -1.12007300
H       -1.15109100      -2.60602700       0.30015500
H       -1.73122700      -0.94531600       0.50378000
H       -0.68454400       1.42608400       1.64023400
H       -0.89603800       1.34194800      -0.40322500
