15
Extracted from Q-Chem output
C       1.963461      0.230473      0.255148
C       0.772488     -0.396461     -0.440355
O      -0.019014     -1.186269      0.477373
C      -1.252668     -0.622724      0.148622
N      -2.424031     -1.101406      0.326519
C      -0.386482      0.423176     -0.906711
N      -1.079139      0.875421      0.331719
H       1.662366      0.908298      1.057557
H       2.559667      0.795543     -0.463313
H       2.596807     -0.540269      0.696535
H       1.108450     -1.033023     -1.264032
H      -2.427392     -2.100749      0.170303
H      -0.404351      1.088289     -1.759768
H      -1.987704      1.288718      0.170134
H      -0.579647      1.280030      1.122595
