18
Extracted from Q-Chem output
C      -2.109481      0.475754      0.700454
C      -1.487864     -0.896520      0.839370
C       0.797188     -0.996970      0.624105
C       0.944302     -0.267604     -0.635537
C       2.328012      0.366554     -0.760348
C       1.137958      1.229648     -0.582218
H      -1.658252      1.027336     -0.124942
H      -1.985982      1.065255      1.610297
H      -3.180149      0.392596      0.498984
H      -1.896163     -1.479126      1.667245
H      -1.547038     -1.481626     -0.072602
H       0.672182     -2.071509      0.436172
H      -0.372491     -0.715364      1.252892
H       0.551704     -0.656792     -1.573804
H       2.995817      0.238392      0.079684
H       2.792202      0.309418     -1.735746
H       0.787934      1.802044     -1.431320
H       0.998236      1.695846      0.384202
