16
smiles: [C:1]([C@@:2]1([H:10])[C@:3]([C:4]([H:12])([H:13])[H:14])([H:11])[C:5]1=[O:6])([H:7])([H:8])[H:9].[H:15][H:16]
C       -1.01818700      -1.05874100      -1.31655300
C       -0.81920400      -0.15566700      -0.12403900
C        0.57677400       0.03447800       0.58057800
C        1.82776200      -0.67323400       0.12039500
C       -0.04435800       1.08356500      -0.23265000
O        0.08358600       2.14027300      -0.77183600
H       -0.19496600      -0.97651100      -2.02705200
H       -1.93182400      -0.78719400      -1.84716000
H       -1.10012800      -2.10339200      -1.00985400
H       -1.64318400      -0.14036800       0.58363600
H        0.48181400       0.14904500       1.65673200
H        2.71322400      -0.16306900       0.50177600
H        1.84935600      -1.70467000       0.47800400
H        1.90594200      -0.68952400      -0.96726500
H       -1.58199100       2.37667000       2.53085500
H       -1.28207900       2.68341700       1.92229300
