15
Extracted from Q-Chem output
C      -0.735335      1.265853     -0.231890
C       0.219860      0.150298      0.116393
C       1.414010      0.003124     -0.788063
C       2.010018      0.740311      0.397807
N       1.237482      0.673998      1.336964
C      -0.438200     -1.265784      0.683926
N      -1.267853     -1.552462     -0.344778
H      -0.181414      2.198608     -0.342706
H      -1.253784      1.051110     -1.163672
H      -1.468172      1.397822      0.564259
H       1.409069      0.513182     -1.747650
H       1.836272     -0.994961     -0.853513
H      -0.841365     -0.999448      1.669278
H       0.426236     -1.928089      0.794230
H      -2.191816     -1.173972     -0.151175
