13
Extracted from Q-Chem output
O      -2.383083     -0.255686      0.248334
C      -1.193627     -0.203190      0.087356
C      -0.353897      0.971176      0.535660
C       0.693598     -0.751310     -1.537726
C       1.117511      0.673433      0.366521
O       1.389188      0.193254     -0.981475
C      -0.405887     -1.274282     -0.633878
H      -0.592837      1.214909      1.572227
H      -0.644063      1.831270     -0.073999
H       1.741363      1.555847      0.485393
H       1.462029     -0.093581      1.064558
H      -1.069844     -1.945328     -1.172140
H       0.116724     -1.868724      0.132991
