13
Extracted from Q-Chem output
O      -2.457962     -0.429945      0.549832
C      -1.346149     -0.293652      0.138683
C      -0.489041      0.972263      0.191997
C       0.398928     -0.039379     -1.078842
C       1.357649      0.475282      0.294739
O       1.801347     -0.031156     -0.887137
C      -0.388256     -1.240781     -0.553134
H      -0.371538      1.261886      1.245431
H      -0.868009      1.833155     -0.352189
H       1.715518      1.478442      0.505317
H       1.336238     -0.217537      1.132726
H      -0.834601     -1.827846     -1.355005
H       0.092289     -1.920510      0.163723
