14
Extracted from Q-Chem output
C       2.473405      0.011440      0.673403
N       1.293058      0.834885      0.496539
C       0.265844      0.323150      0.021234
O       0.035128     -0.980798     -0.424487
C      -1.262299     -0.579058     -0.901971
C      -2.105421     -0.165289      0.238385
C      -1.093215      0.805944     -0.348320
H       3.330166      0.523745      0.233626
H       2.672792     -0.096579      1.741474
H       2.389420     -0.984633      0.230575
H      -1.577843     -0.937270     -1.870121
H      -1.936651     -0.605572      1.213639
H      -3.135746      0.074892      0.004775
H      -1.348636      1.775144     -0.745037
