18
Extracted from Q-Chem output
C       2.626897      0.714192      0.158525
O       1.373363      0.976314     -0.426214
C       0.621319     -0.182616     -0.665806
C      -0.117447     -0.709842      0.580780
N      -1.347966      0.046765      0.190861
C      -2.639587     -0.576977      0.537895
C      -0.747521      0.207169     -1.210669
H       3.127002      1.671681      0.291297
H       3.239341      0.076644     -0.490529
H       2.529111      0.226647      1.135890
H       1.198668     -0.915793     -1.236865
H      -0.356395     -1.770283      0.538668
H       0.262801     -0.448053      1.566187
H      -1.323062      0.952904      0.646478
H      -2.706211     -1.487940     -0.071394
H      -3.418182      0.120752      0.209276
H      -0.840532      1.205777     -1.633043
H      -1.206907     -0.541779     -1.851100
