15
Extracted from Q-Chem output
C       1.891903     -0.045900      0.801329
C       0.551188      0.063494      0.142612
C      -0.038186     -1.013043     -0.568626
C      -0.784695      0.083459      1.033151
O      -1.607092     -1.172109      0.521260
C      -1.107989      1.304227      0.162900
O       0.228832      1.348761     -0.377141
H       2.696115      0.124342      0.082071
H       2.010719     -1.036238      1.242314
H       1.958056      0.695511      1.596698
H      -0.539144     -0.838191     -1.512297
H       0.252533     -2.033226     -0.360368
H      -2.315777     -0.847991     -0.043549
H      -1.860806      1.166284     -0.634467
H      -1.345360      2.222726      0.704708
