10
Extracted from Q-Chem output
O      -1.799559     -0.453856      1.243213
C      -1.070167      0.003313      0.414076
C       0.023599     -0.774726     -0.286632
C       2.213095      0.333537     -0.781512
C       1.383671     -0.217584      0.045528
C      -1.201907      1.419640      0.001567
N      -1.314457      2.509202     -0.338147
H      -0.145729     -0.716868     -1.364513
H      -0.056847     -1.813974      0.030429
H       1.770297     -0.256255      1.067662
