10
Extracted from Q-Chem output
O      -1.460691     -0.553418      1.326984
C      -0.873002     -0.042173      0.420012
C       0.051919     -0.788895     -0.524236
C       1.737284     -0.534948     -0.862737
C       1.571104     -0.000497      0.255068
C      -1.075715      1.394446      0.118436
N      -1.242052      2.504532     -0.116275
H      -0.284720     -0.539921     -1.530845
H      -0.041615     -1.850367     -0.321714
H       1.560581      0.429942      1.237629
