15
Extracted from Q-Chem output
C      -2.208742      0.060247     -0.770736
C      -1.067813     -0.468207      0.087818
C       0.254151      0.210386     -0.229780
C       1.403082     -0.277621      0.600678
O       1.335361     -1.125410      1.452970
C       2.779327      0.354107      0.345824
O       2.975189      1.197443     -0.480339
H      -2.356362      1.132335     -0.618940
H      -3.146992     -0.440503     -0.527850
H      -2.013014     -0.099168     -1.833898
H      -0.959230     -1.546559     -0.051575
H      -1.296951     -0.327358      1.146862
H       0.533596      0.082871     -1.282076
H       0.194296      1.297004     -0.096424
H       3.574103     -0.049567      1.002854
