11
Extracted from Q-Chem output
C      -1.151566     -0.423546     -0.214183
C      -0.092069      0.054151      0.712060
C       1.207564     -0.094471     -0.059721
O       0.710065      0.483937     -1.263784
C      -0.602018      0.840197     -0.850994
H      -2.167481     -0.330025      0.153804
H      -0.956420     -1.342206     -0.756156
H      -0.209425      0.086801      1.789958
H       1.565338     -1.123962     -0.173396
H       2.019471      0.530507      0.319313
H      -0.303765      1.312510      0.389155
