14
Extracted from Q-Chem output
N       2.600204      0.384720      0.335536
C       1.459761      0.069688     -0.058052
O       0.851092     -1.162428     -0.162864
C      -0.362432     -0.578634     -0.709418
C      -1.509964     -0.547068      0.275164
C      -1.192243      0.739605      1.027004
C       0.280393      0.813210     -0.594650
H       3.138792     -0.428499      0.623315
H      -0.571656     -0.996200     -1.693502
H      -1.512635     -1.436716      0.908625
H      -2.466761     -0.485071     -0.248211
H      -0.406656      0.527573      1.769287
H      -0.372752      1.491824      0.140968
H       0.413048      1.480903     -1.442384
