15
Extracted from Q-Chem output
C      -1.977087      0.041191      0.229740
C      -0.666146     -0.500020     -0.319302
C       0.576623      0.120656      0.319326
C       1.871116     -0.487537     -0.204790
C       0.589440      2.682481     -0.096557
N       0.587783      1.535916      0.099162
H      -2.055526     -0.128927      1.306300
H      -2.067634      1.113905      0.052307
H      -2.827068     -0.448718     -0.246621
H      -0.606010     -1.579282     -0.153714
H      -0.612488     -0.342562     -1.400507
H       0.523609     -0.019238      1.403582
H       1.890365     -1.556658      0.010638
H       1.948247     -0.348501     -1.284290
H       2.737787     -0.022859      0.264584
