14
Extracted from Q-Chem output
C       1.950980     -0.467721      0.335470
O       1.589112      0.896405      1.050513
C       0.655342      0.117351      0.667825
C      -0.794515     -0.011209      0.977755
C      -1.227167     -0.283582     -0.467841
C      -0.080656      0.435406     -1.184187
H       2.380500     -1.113900      1.103726
H       1.194564     -0.069331     -0.821429
H      -1.167052      0.948575      1.341563
H      -1.002450     -0.781730      1.721878
H      -2.230087      0.070455     -0.709666
H      -1.191654     -1.354630     -0.674622
H      -0.194559      1.519558     -1.184675
H       0.104710      0.099846     -2.210005
