11
Extracted from Q-Chem output
N      -2.157451     -0.170319      0.182864
C      -0.944125     -0.585492     -0.271165
O      -0.799482     -1.534644     -1.016519
N       0.105450      0.175473      0.218711
C       1.383063     -0.053067     -0.069690
N       2.047292      0.852662      0.580994
H      -2.972733     -0.602187     -0.208741
H      -2.245448      0.688777      0.690373
H       0.774587      1.125161      0.905482
H       1.748287     -0.842242     -0.718696
H       3.049716      0.940636      0.556385
