13
Extracted from Q-Chem output
O       2.073257     -0.062975      0.779494
C       0.761213     -0.456810      0.486019
C      -0.149134      0.715392      0.741644
O       1.614876     -0.771479     -1.692795
C       0.716371     -1.033547     -0.937281
C      -1.945308      0.025037     -0.663832
C      -1.370832      0.976885      0.218283
H       2.530461     -0.020928     -0.073542
H       0.458968     -1.260038      1.173201
H       0.282542      1.399268      1.471046
H      -0.111286     -1.696785     -1.199275
H      -2.995827      0.296293     -0.860051
H      -1.865682      1.888764      0.556375
