14
smiles: [C:1]1([H:7])([H:8])[C:2]([H:9])([H:10])[C:3]12[C-:4]=[O+:5][C:6]2([H:13])[H:14].[H:11][H:12]
C       -0.78169600       0.82150200      -0.59407300
C       -1.20206400      -0.32745100       0.25090900
C        0.21480300       0.15991100       0.30941800
C        1.41862100      -0.60805800      -0.12080500
O        2.12720200      -0.12209100       0.89997900
C        1.05282700       0.68953800       1.45157000
H       -0.64844400       0.66431000      -1.65628000
H       -1.11240300       1.81256900      -0.31063400
H       -1.82387600      -0.12855100       1.11437200
H       -1.36007200      -1.28809700      -0.22143600
H        0.28631500      -1.88218700      -2.45962200
H       -0.22670500      -2.04624800      -2.97368100
H        0.79831700       0.36560600       2.46117000
H        1.31780600       1.74721700       1.43720900
