16
Extracted from Q-Chem output
C      -1.524455     -1.288015     -0.072936
C      -0.505440     -0.212489      0.063199
C      -0.574444      1.263121     -0.282034
C       0.830161      1.397135      0.369635
C       0.622641     -0.021803      0.891731
N       1.426142     -1.085719      1.032810
O       2.358722     -0.916196      0.145394
H      -1.895001     -1.345760     -1.096754
H      -2.372107     -1.055765      0.577010
H      -1.119085     -2.255233      0.219614
H       0.596135     -0.577911     -1.037449
H      -0.647471      1.507049     -1.340606
H      -1.365977      1.779551      0.263958
H       0.921665      2.148387      1.153394
H       1.639729      1.512479     -0.350270
H       1.610405     -0.752318     -0.850951
