13
Extracted from Q-Chem output
O       1.418180      2.014248      0.558548
C       0.859432      1.014119      0.198205
N       1.207627     -0.270059      0.478148
C       0.637985     -1.239315     -0.348147
C      -1.375191     -0.102615     -0.430554
C      -1.432440      1.149562      0.257335
N      -0.344762      1.055101     -0.603884
H       2.012890     -0.432948      1.067238
H       0.656618     -2.249690      0.045559
H       0.781831     -1.138528     -1.417860
H      -1.884014     -0.354295     -1.348106
H      -1.161289     -0.951546      0.238531
H      -1.325617      1.350034      1.320563
