15
smiles: [C:1](/[C:2](=[C:3](/[O:4][C:5]([H:13])([H:14])[H:15])[H:12])[H:10])([H:6])([H:8])[H:11].[H:7][H:9]
C       -1.79885700       0.00930000       1.51383600
C       -0.68044500      -0.72210500       0.84248700
C        0.44970600      -0.14440400       0.46541500
O        1.47917700      -0.84076600      -0.08115700
C        2.40091200      -0.06296500      -0.81074300
H       -1.57266300       1.07206700       1.62013000
H       -2.03972100       1.08943300      -2.03894100
H       -2.72933400      -0.07967200       0.94714300
H       -1.61729600       0.67036100      -1.59138300
H       -0.79355200      -1.78782100       0.66798300
H       -1.99320300      -0.39070000       2.51263900
H        0.62869100       0.92210600       0.60518600
H        3.22002200      -0.72179500      -1.09260300
H        1.94466400       0.35079000      -1.71622600
H        2.79696400       0.75840700      -0.20289200
