12
Extracted from Q-Chem output
O       0.105881     -1.528607     -1.077972
C      -0.097227     -0.807696      0.052727
C      -1.023903     -1.056282      0.969969
C       0.164815      2.450734     -0.452915
O       0.599700      1.307856     -0.863491
C       0.872477      0.322584      0.161914
H      -0.563905     -2.212902     -1.151013
H      -1.705629     -1.894352      0.882709
H      -1.122788     -0.411388      1.830167
H       0.027128      3.011958     -1.405055
H       0.798410      0.819086      1.127286
H       1.888036     -0.029101     -0.024125
