17
Extracted from Q-Chem output
C       2.079053      0.653643      0.279794
C       0.694040      0.146447      0.483959
C      -0.340608     -1.809073      0.184068
C      -1.020697     -0.909622     -0.737707
C      -1.626157      0.356056     -0.156850
C      -0.393751      1.166109      0.278616
O       0.393988     -0.710328     -0.916219
H       2.185156      1.200857     -0.674327
H       2.825892     -0.141512      0.305081
H       2.311902      1.347674      1.092308
H      -0.424638     -1.770240      1.254973
H       0.030373     -2.734098     -0.242760
H      -1.478147     -1.330276     -1.628268
H      -2.281367      0.107084      0.679912
H      -2.222947      0.881692     -0.903111
H      -0.136930      1.888951     -0.517789
H      -0.574460      1.728172      1.196406
