11
Extracted from Q-Chem output
N       1.668046     -0.888352     -0.367769
C       0.869953     -0.681732     -1.306539
C      -0.523556     -0.112840      1.825518
O      -1.214571      0.118318      0.757381
C      -0.551959      0.896231     -0.263231
O      -0.256090      0.102994     -1.353187
H       1.430870     -0.432601      0.514239
H       0.995884     -1.146812     -2.280842
H      -1.218278     -0.711468      2.451805
H      -1.275765      1.637244     -0.593144
H       0.332198      1.349093      0.192257
