19
Extracted from Q-Chem output
C       2.756573      0.418197      0.065092
C       1.381849     -0.257442      0.018978
C       0.311888      0.733422      0.308879
C      -1.633435     -0.716416      1.090940
C      -1.439336     -1.118556     -0.331633
O      -1.316920      0.321226     -0.668708
C      -2.223856      0.525488      0.493434
H       2.833304      1.215563     -0.676966
H       2.954068      0.850545      1.047580
H       3.541149     -0.310583     -0.143553
H       1.327102     -1.075654      0.737371
H       1.238274     -0.686321     -0.977424
H       0.334406      1.614650     -0.325977
H       0.130201      0.945731      1.349486
H      -2.147040     -1.332896      1.825192
H      -2.337785     -1.427575     -0.890197
H      -0.587624     -1.715387     -0.666116
H      -2.112313      1.511335      0.951711
H      -3.229551      0.437190      0.052609
