12
Extracted from Q-Chem output
N      -0.537296     -1.565130      0.584979
C       0.010078      0.409495     -1.009378
C      -0.840308     -0.283025      0.037598
C      -0.192171      1.035879      0.359878
N       1.254740      0.848279      0.657754
C       1.425065      0.367671     -0.517469
H      -1.067692     -1.715759      1.432842
H      -0.361886      0.706987     -1.978788
H      -1.900180     -0.175142     -0.180787
H      -0.711515      1.944647      0.628329
H       0.443669     -1.628643      0.827844
H       2.353556     -0.022429     -0.928610
