12
Extracted from Q-Chem output
C      -1.883690     -0.236848     -0.716146
C      -1.165966      0.207013      0.534735
C       1.079016     -0.394041      0.536823
O       0.210938      0.513111      0.219711
C       2.387809      0.013677      0.145974
C       3.550491      0.195516     -0.110874
H      -2.938015     -0.410161     -0.494854
H      -1.452623     -1.165781     -1.092485
H      -1.814246      0.522626     -1.495829
H      -1.160677     -0.564868      1.304616
H      -1.581135      1.132387      0.935185
H       4.575951      0.366958     -0.341259
