12
Extracted from Q-Chem output
C      -1.745823      0.132188     -0.558732
C      -0.810149     -0.327593      0.537798
C       0.969218     -0.836923      0.437379
O       0.269759     -1.237815     -0.563931
C       2.038860      0.097214      0.133506
C       2.994987      0.824412      0.055105
H      -2.581399      0.643636     -0.072018
H      -2.133307     -0.702342     -1.138652
H      -1.258689      0.839026     -1.229074
H      -1.187166     -1.100130      1.192690
H      -0.445716      0.541140      1.094449
H       3.841591      1.465201     -0.027143
