9
Extracted from Q-Chem output
N      -0.542308     -0.894335      0.771746
C       0.289631      0.162891      0.265497
C       2.125674     -0.807811     -1.277768
N       1.300787     -0.365477     -0.583967
C      -0.451095      1.221669     -0.470622
N      -1.079787      2.028174     -0.988029
H      -1.134925     -0.560614      1.518718
H      -1.119398     -1.295006      0.044195
H       0.783774      0.645973      1.111926
