9
Extracted from Q-Chem output
N      -0.784982     -0.632502      0.754418
C       0.111578      0.260404      0.257274
C       1.239532     -0.687061     -1.051129
N       1.956373     -0.452690     -0.142467
C      -0.411715      1.196517     -0.722680
N      -0.865201      1.970595     -1.435635
H      -0.467076     -1.187869      1.530804
H      -1.340587     -1.140171      0.084796
H       0.686547      0.772501      1.018108
