13
Extracted from Q-Chem output
O       2.113770      1.474457     -1.327510
C       1.645487      0.936225     -0.363649
C       0.834170     -0.332870     -0.459141
O       0.672666     -1.032791      0.786562
C      -0.744264     -1.022314      0.624817
C      -1.265782      0.365786      0.663571
C      -0.675035     -0.177588     -0.614776
H       1.761381      1.357008      0.655561
H       1.266533     -0.984909     -1.222190
H      -1.293688     -1.921729      0.866063
H      -2.344629      0.456972      0.638881
H      -0.755129      1.115885      1.255084
H      -1.215480     -0.234131     -1.546467
