13
Extracted from Q-Chem output
O       2.115913      1.331146     -1.083428
C       1.474203      0.642740     -0.309442
C       0.639280     -0.588441     -0.758189
O       0.455525     -1.342860      0.412157
C      -0.451285     -0.761453      1.123097
C      -1.374655      0.139796      0.376646
C      -0.365128      0.469972     -0.685184
H       1.603654      0.620308      0.788546
H       0.962043     -1.181691     -1.606638
H      -0.499618     -1.078755      2.158043
H      -2.307280     -0.370055      0.057949
H      -1.674554      0.994372      0.988397
H      -0.516601      1.154658     -1.502198
