15
Extracted from Q-Chem output
C      -1.587131     -0.169669     -0.671322
O      -0.983935     -0.842936     -1.751139
C       0.203274     -0.919835      0.984846
C       1.509005     -0.664439      0.859610
C       1.680749      0.644634      0.216722
C       0.476894      1.171323     -0.036313
C      -0.594683      0.223171      0.427505
H      -2.110565      0.732514     -1.015425
H      -2.337966     -0.851427     -0.266590
H      -0.243542     -1.813447      1.398339
H       2.320284     -1.309323      1.168832
H       2.636791      1.104196      0.003218
H       0.273740      2.131133     -0.492730
H      -0.162686     -0.393203     -1.967191
H      -1.174187      0.696438      1.232585
