11
smiles: [H:9][H:11].[O:1]([C:2]([C:3](=[C:4]=[O:5])[H:10])([H:7])[H:8])[H:6]
O       -0.72574800       1.03925900      -0.26066200
C       -0.82892800      -0.25215300       0.30130600
C        0.46749000      -0.56235200       0.99108300
C        1.40826300       0.33810500       1.13472900
O        2.25626800       1.11209200       1.27051000
H       -1.58748200       1.31731500      -0.57178500
H       -1.01879200      -1.00501200      -0.47488700
H       -1.65787100      -0.29942800       1.01984600
H        0.47614100       0.03267600      -2.33571200
H        0.66747000      -1.54795500       1.38727900
H        0.63869800      -0.47175800      -2.85867500
