11
Extracted from Q-Chem output
O      -1.191938      0.618246     -0.776485
C      -0.986531     -0.227432      0.335962
C       0.465667     -0.519163      0.514607
C       1.503445      0.169229     -0.084378
O       2.730849      0.163929     -0.030103
H      -2.127848      0.794302     -0.874317
H      -1.524667     -1.175518      0.209485
H      -1.371350      0.241370      1.253076
H       0.850112      0.008662     -1.153722
H       0.709017     -1.268808      1.261917
H       0.993012      1.021013     -0.783833
