14
Extracted from Q-Chem output
N      -2.133656     -0.115737      0.226788
C      -1.192562     -0.100891     -0.723967
C      -0.051826     -0.971592     -0.723851
C       0.861549     -0.210624     -0.038805
N       2.055798     -0.601904      0.512373
C       0.254847      1.082637      0.227969
N      -0.738017      1.213693     -0.806086
H      -2.342263     -1.059697      0.539241
H      -1.100537      0.458400      1.004166
H      -0.085287     -2.047797     -0.800533
H       2.760163      0.107364      0.611785
H       2.415006     -1.490334      0.211627
H       0.867363      1.947549      0.470403
H      -1.489921      1.833602     -0.532117
