11
Extracted from Q-Chem output
O      -0.289333      1.852658     -1.474683
C      -0.531156      0.979489     -0.721194
O      -1.739388      0.585314     -0.219263
C      -1.157568     -0.416169      0.657883
C       0.212776     -0.095869      0.066839
C       2.011603     -0.589636      0.015626
O       1.279656      0.231812      0.892938
H      -1.572695     -1.402624      0.464889
H      -1.252779     -0.131581      1.703945
H       2.285750      0.084917     -0.833192
H       0.584765     -0.977822     -0.588385
