15
Extracted from Q-Chem output
C       1.575269     -0.409840     -0.269421
C       0.479502      0.308698      0.456306
C       0.662913      1.418089      1.159406
O      -1.835644     -0.657591     -1.854767
C      -1.476817      0.142126     -1.033703
C      -0.908992     -0.283203      0.307446
O      -0.917993     -1.673477      0.419190
H       2.519352      0.127062     -0.187030
H       1.334885     -0.529820     -1.330044
H       1.699430     -1.413747      0.138937
H      -0.153127      1.893709      1.692073
H       1.637298      1.886152      1.233155
H      -1.534740      1.231560     -1.211605
H      -1.561826      0.167961      1.069381
H      -1.297888     -2.017146     -0.401135
