16
Extracted from Q-Chem output
C      -1.789415     -0.291889     -0.551339
C      -0.530987     -0.240224      0.287823
C       0.058443      1.142359      0.557230
C       1.435156      0.819287      0.158942
O       1.477567     -0.544643     -1.386733
C      -0.398235     -1.135033      1.371281
N      -0.216796     -1.867680      2.249505
H      -1.645566      0.218637     -1.507024
H      -2.643739      0.183505     -0.052217
H      -2.066224     -1.323189     -0.774051
H       0.619522     -0.785862     -0.875630
H      -0.387009      1.891930     -0.095320
H      -0.008818      1.488988      1.595407
H       2.009217      0.206288      0.843008
H       2.003178      1.421015     -0.536245
H       2.118475     -1.246590     -1.220624
