13
Extracted from Q-Chem output
C      -1.228135     -0.720137      0.625720
C      -0.392175      0.207121     -0.985994
C       0.581759      1.267472     -0.443815
C       1.253326      0.216830      0.419678
O       2.086861      0.162065      1.275447
N       0.413198     -0.802407     -0.083265
H      -2.041754     -1.106833      0.026943
H      -0.962358     -1.428049      1.425134
H      -1.470732      0.242845      1.055834
H      -0.236079     -0.042544     -2.039142
H       1.278532      1.630296     -1.204648
H       0.187387      2.124306      0.104004
H       0.681872     -1.766511     -0.229359
