9
Extracted from Q-Chem output
O      -0.165545     -1.159932     -1.018319
C       0.641491     -0.691457      0.059223
C       0.498790      0.806832      0.087859
C      -0.812842      0.849671     -0.121165
C      -1.094028     -0.654789     -0.100651
H       1.494213     -1.321700      0.279162
H       1.253166      1.554918      0.282700
H      -1.532195      1.644491     -0.231069
H      -0.181149     -1.038382      0.931918
