14
Extracted from Q-Chem output
C       1.863329      0.426701     -0.185562
C       0.496945      0.593021      0.398022
C      -0.547501     -0.127950      0.055238
C      -1.092457     -1.197472     -0.776105
C      -1.963731     -0.427667      0.217725
O       0.362420      1.569701      1.350205
H       2.590417      0.176146      0.593202
H       1.866703     -0.369775     -0.926610
H       2.195519      1.350492     -0.669435
H      -1.255464     -1.011608     -1.832594
H      -0.850150     -2.227388     -0.535462
H      -2.693043      0.266909     -0.184723
H      -2.288079     -0.948992      1.111714
H       1.208204      1.999429      1.485307
