14
Extracted from Q-Chem output
C      -1.495721     -0.660910      0.069926
C      -0.154778     -0.095003     -0.135821
C       1.071093     -0.875531      0.029029
O       2.168727     -0.190393      0.273199
C       0.072369      1.340154     -0.385659
O       0.564377      1.514540      0.924653
H      -1.467316     -1.744801      0.182398
H      -2.190520     -0.364450     -0.717984
H      -1.872046     -0.234767      1.006793
H       0.962818     -1.288524     -1.044376
H       0.883116     -1.783442      0.638732
H       1.463108      0.938135      0.853391
H      -0.832626      1.925554     -0.549609
H       0.817373      1.540661     -1.161238
