14
Extracted from Q-Chem output
C       1.430471     -0.344277     -1.130162
O       0.110813      0.142817     -1.047434
C      -0.677080     -0.450279     -0.018291
C      -0.364857      0.235962      1.342272
C      -2.116759     -0.341877     -0.190701
O      -0.587236      1.619522      1.261059
H       1.443934     -1.434622     -1.249205
H       2.031569     -0.081621     -0.251584
H       1.884908      0.109215     -2.009536
H      -0.420705     -1.516471      0.094175
H       0.677549      0.012513      1.600622
H      -1.008773     -0.162354      2.123379
H      -2.304484      0.368395     -1.016958
H      -0.144419      1.935124      0.467310
