14
Extracted from Q-Chem output
N      -2.445135     -0.548902     -0.158270
C      -1.126762     -0.276860     -0.109285
C      -0.109985     -1.242363     -0.071454
C       0.987933     -0.435203      0.071524
N       2.279060     -0.849238      0.164174
C       0.687060      1.045516      0.144220
N      -0.740993      1.046914     -0.098769
H      -3.107220      0.140863     -0.463264
H      -2.677802     -1.517469     -0.287846
H       0.927183      1.456309      1.129679
H       3.036203     -0.210782      0.006486
H       2.442330     -1.817601     -0.050232
H       1.225245      1.623199     -0.613273
H      -1.313609      1.722958      0.380461
