19
Extracted from Q-Chem output
C      -1.099759     -1.903163     -0.353446
C      -0.192808     -0.674834     -0.330187
C      -0.646595      0.294701      0.771570
C      -0.348123      1.758032      0.530249
O       1.080571      2.011966      0.509210
C       1.694015      2.533358     -0.492554
C       1.265439     -1.104283     -0.169780
H      -2.139618     -1.632180     -0.549914
H      -0.786081     -2.610334     -1.123724
H      -1.066141     -2.425095      0.607466
H      -0.296216     -0.161683     -1.295035
H      -0.224396     -0.009844      1.734377
H      -1.734302      0.232568      0.882808
H      -0.745483      2.372468      1.339393
H      -0.755633      2.105928     -0.425097
H       0.917267      2.741841     -1.281764
H       1.397615     -1.643424      0.772844
H       1.557904     -1.776862     -0.978679
H       1.954810     -0.261019     -0.168382
