14
smiles: [C:5](=[C:6]([H:13])[H:14])([H:11])[H:12].[O:1]=[C:2]([C:4](=[C:3]([H:8])[H:9])[H:10])[H:7]
O        0.89424100       1.67185800      -1.10092300
C        1.71645400       0.92639100      -0.63850700
C        2.36538200      -0.99361900       0.71141000
C        1.39989000      -0.21774100       0.23666700
C       -2.62559800      -0.53128800      -0.21522200
C       -2.37458800       0.74713400       0.00825500
H        2.79780100       1.06412200      -0.85196300
H        2.16200500      -1.83769700       1.35836300
H        3.40533000      -0.80216900       0.46475200
H        0.35234300      -0.38168500       0.46480600
H       -2.01429400      -1.12251300      -0.88750100
H       -3.45296200      -1.04072800       0.26562700
H       -1.54721100       1.25652200      -0.47261700
H       -2.98591700       1.33831200       0.68054400
