11
Extracted from Q-Chem output
O       1.578650      1.934552     -0.108846
C       0.554684      1.095691      0.150827
C      -1.661835     -0.772239     -0.011754
N      -0.422034     -1.031381      0.220523
C       0.714947     -0.230806     -0.150390
O       1.718418     -0.809356     -0.616433
H       2.252794      1.392503     -0.546542
H      -0.277531      1.528012      0.684560
H      -2.429380     -1.405824      0.412866
H      -1.909744      0.085637     -0.619168
H      -0.163648     -1.923586      0.632031
