11
Extracted from Q-Chem output
O       1.290935      1.933915     -0.140117
C       0.460306      0.966285      0.247009
C      -1.492376     -0.567986     -0.072837
N      -0.337208     -1.146032      0.243735
C       0.775763     -0.366599     -0.100714
O       1.799146     -0.753799     -0.665565
H       1.907187      1.528753     -0.770685
H      -0.203304      1.222574      1.057628
H      -2.379403     -0.797085      0.507678
H      -1.592451     -0.066869     -1.019941
H      -0.247227     -2.031260      0.721176
