10
Extracted from Q-Chem output
O       2.071103      0.459463     -0.679199
C       0.997717      0.308615     -0.142000
C       0.023232      1.214698      0.361000
C      -0.927468     -0.891592     -0.154471
N       0.370101     -0.993786      0.054091
H      -0.489710      0.939217      1.271472
H       0.146707      2.277003      0.177616
H      -1.616552     -1.518281      0.406642
H      -1.292228     -0.386741     -1.032072
H       0.808014     -1.752988      0.551722
