16
Extracted from Q-Chem output
C      -2.790864     -0.680020      0.293809
C      -1.608843     -0.724562     -0.634647
C       1.428670      1.421798     -0.357002
C       1.671272      0.177609      0.465743
O       2.990800     -0.235138      0.244614
C      -0.368728     -0.797907     -0.229938
N       0.777144     -0.941060      0.152222
H      -3.344926      0.254924      0.182805
H      -2.477853     -0.763446      1.334478
H      -3.481973     -1.499139      0.083786
H      -1.772602     -0.695305     -1.705869
H       1.568686      1.196063     -1.415050
H       0.416419      1.796461     -0.202091
H       1.512277      0.388886      1.532193
H       2.140825      2.194407     -0.068661
H       3.076865     -1.129205      0.585221
