14
smiles: [H:10][H:12].[O:1]=[C:2]1[C:3]([H:8])([H:9])[N:4]2[C:5]([H:11])=[C:6]1[C:7]2([H:13])[H:14]
O        1.04086200       2.16282700      -0.17783100
C        0.73437200       1.02525600      -0.16503800
C        0.92012200      -0.01957600      -1.35854100
N        0.43477100      -1.26576800      -0.66935200
C        1.01141200      -0.94382700       0.59226100
C        0.13860800       0.08305200       0.95806000
C       -0.80621400      -0.65494100      -0.07047500
H        1.99199600      -0.04597100      -1.57541700
H        0.37381200       0.15385900      -2.28683800
H       -2.84405600       1.25950100       2.13992900
H        1.99647600      -1.27540400       0.91681500
H       -2.11305500       1.13844500       2.06590400
H       -1.39982000      -1.41019200       0.43859100
H       -1.42570000      -0.08108700      -0.76157100
