15
Extracted from Q-Chem output
C       2.298780      0.451944      0.373788
N       1.052044      0.129940      0.056239
C       0.534868     -1.157023      0.453604
C      -0.699615     -1.312000      0.016291
C      -1.132443     -0.083622     -0.740521
N      -2.407111      0.428459     -0.232652
C       0.091622      0.772144     -0.609443
H      -1.320017     -0.365955     -1.786640
H       2.686470      1.408862      0.067025
H       2.886547     -0.261521      0.923598
H       1.177446     -1.805923      1.027254
H      -1.337520     -2.166932      0.180849
H      -2.745659      1.168066     -0.833518
H      -2.262926      0.837146      0.683270
H       0.274821      1.736566     -1.053637
