11
Extracted from Q-Chem output
O       1.194937      2.100683      0.057604
C       0.434805      1.016414      0.354906
C      -1.296194     -0.722061     -0.087299
N      -0.496204     -1.329256      0.763299
C       0.765924     -0.216242     -0.114761
O       1.431059     -0.800155     -0.913788
H       1.724163      1.917922     -0.724385
H      -0.235639      1.152785      1.183774
H      -1.984862      0.030952      0.279382
H      -1.416625     -1.030049     -1.126370
H      -0.072830     -2.151006      0.339598
