19
Extracted from Q-Chem output
C       2.075013     -0.650807      1.369032
C       0.759518      1.304717      0.883218
C       0.311505      0.562576     -0.262275
O       0.978350     -0.845066     -0.136585
C      -1.189092      0.275299     -0.407779
C      -1.579870     -0.190849     -1.799261
O      -1.511167     -0.716015      0.570375
H       2.302946     -1.700216      1.183485
H       2.904070     -0.000255      1.144063
H       1.632007     -0.480194      2.336878
H       0.046074      1.479904      1.682965
H       1.467520      2.108736      0.717714
H       0.718127      0.908332     -1.212800
H       0.268743     -1.412434      0.216848
H      -1.721225      1.201092     -0.166664
H      -1.032901     -1.096029     -2.070585
H      -2.651930     -0.400105     -1.855330
H      -1.356106      0.581592     -2.537120
H      -2.433081     -0.960822      0.476015
