16
Extracted from Q-Chem output
C      -2.255802      0.107682      0.446759
C      -1.215978     -0.010260     -0.668777
C       0.161297      0.189973     -0.137828
C       1.368095     -0.319192     -0.873447
C       2.579144      0.016379     -0.144778
C       2.485941      0.013385      1.138703
H      -2.087762     -0.648916      1.214529
H      -3.262788     -0.024336      0.049808
H      -2.206861      1.087276      0.926246
H      -1.299861     -0.981394     -1.163882
H      -1.432919      0.754347     -1.429136
H       0.305670      1.129563      0.385644
H       1.336123     -0.249880      1.357721
H       1.343715     -1.395324     -1.057088
H       1.247565      0.142768     -1.872597
H       3.119390      0.215796      1.988391
