12
Extracted from Q-Chem output
N      -1.887927     -1.007972      0.760296
C      -0.992450     -0.707843     -0.165825
N       0.276703     -1.008488      0.014857
C       1.195408     -0.120405     -0.155661
O       2.509257     -0.436095     -0.231054
C       0.759600      1.207734     -0.442066
N      -0.497580      1.401909     -0.237615
H      -1.637374     -1.197563      1.720068
H      -2.861580     -0.888642      0.555105
H       2.577609     -1.394986     -0.202652
H       1.435411      1.911225     -0.924236
H      -0.848273      2.254311     -0.665989
