16
Extracted from Q-Chem output
C       1.529711     -0.149403      1.162685
C       0.916733     -0.003016     -0.205837
C       0.056829     -1.091534     -0.805310
C      -0.552275      0.217127     -0.434097
C      -1.530706      0.325452      0.704727
O      -0.898035      1.008484     -1.542791
H       2.501269     -0.643956      1.097847
H       1.680854      0.821786      1.640395
H       0.904608     -0.751295      1.824251
H       1.539834      0.514988     -0.927649
H       0.162674     -1.299720     -1.861339
H      -0.173970     -1.950126     -0.185616
H      -2.535390      0.088690      0.350505
H      -1.543173      1.340259      1.113450
H      -1.285996     -0.357537      1.517815
H      -0.772966      1.929802     -1.303756
