13
Extracted from Q-Chem output
C      -1.282286     -0.552616      0.280250
C      -1.267671      1.008353      0.207044
C       0.196411      0.836389     -0.154512
N       1.378183      1.351796     -0.277477
C       2.250801      0.249417     -0.501932
C       1.432965     -0.937173     -0.324739
N       0.123266     -0.503341     -0.188531
H      -1.949911     -1.066865     -0.408546
H      -1.382864     -0.959724      1.285572
H      -1.888200      1.437013     -0.576988
H      -1.447315      1.522593      1.148521
H       2.212484     -0.562374      0.595841
H       1.710805     -1.957241     -0.545173
