15
smiles: [H:13][H:15].[N:1]([C:2](=[O:3])[C:4]([N:5]1[C:6]([H:12])=[C:7]1[H:14])([H:10])[H:11])([H:8])[H:9]
N        1.45151400       0.16679700      -1.45239800
C        1.50622200       0.24970200      -0.09094700
O        2.19022700       1.06616000       0.48042500
C        0.59463800      -0.72636500       0.63919300
N       -0.75843100      -0.15544700       0.74407400
C       -1.61756600      -0.39601900      -0.44766100
C       -1.84836100      -1.14773200       0.55042000
H        2.05990300       0.76337600      -1.98496800
H        1.02640100      -0.61736800      -1.91010600
H        0.58820100      -1.70118900       0.12942700
H        0.99038000      -0.85044700       1.64673600
H       -1.80002600       0.05555000      -1.40449400
H       -1.15020800       2.91502800      -0.36717000
H       -2.38548000      -1.86806700       1.13851100
H       -0.97752600       2.38452500       0.12589800
