11
Extracted from Q-Chem output
N       1.551814     -0.347169     -0.008295
C       0.255871     -0.200362     -0.479486
C      -1.745692     -0.772653      0.494365
O      -1.792760      0.604440      0.170999
C      -0.541961      1.033879     -0.059204
O      -0.149691      2.151690      0.015521
H       1.812224      0.232097      0.771205
H       2.280349     -0.455712     -0.689534
H       0.183492     -0.308918     -1.565774
H      -0.504680     -1.095429     -0.189102
H      -1.212446     -0.801437      1.472899
