10
Extracted from Q-Chem output
N      -1.708359      0.498757      0.057984
C      -0.350584      0.720541      0.042470
C       0.735099      1.266877      0.425426
N       0.865242      0.429754     -0.787966
N       1.452422     -0.830921     -0.530061
N       0.609303     -1.705891     -0.349585
H      -1.887023     -0.492167      0.168323
H      -2.126086      0.798331     -0.815620
H       1.375543      1.899962      1.012749
H       1.120098     -2.586351     -0.238586
