14
Extracted from Q-Chem output
C       1.257671     -0.580136     -0.803442
C       0.173630     -1.308306     -0.576150
C      -1.806971      0.183922      0.134846
C      -0.653199     -0.724187      0.523330
N       0.091032      0.527496      0.903358
C       1.333737      0.605501      0.122021
C      -1.041738      1.239226      0.415756
H       2.004814     -0.788089     -1.559802
H       2.210310      0.557146      0.775600
H      -0.102401     -2.210669     -1.105994
H      -2.841232      0.022671     -0.124050
H      -0.831736     -1.407014      1.359028
H       1.387398      1.554205     -0.423465
H      -1.140481      2.317824      0.383990
