14
Extracted from Q-Chem output
C      -2.357034      0.462955      0.016725
O      -1.211836     -0.189536     -0.472213
C      -0.106314     -0.061569      0.376300
C       1.045282     -0.789393     -0.282387
C       3.174600      0.024994      0.470364
O       2.176206     -0.775540      0.617151
H      -2.670869      0.049570      0.983335
H      -2.182685      1.539676      0.135691
H      -3.152326      0.309087     -0.710434
H      -0.305087     -0.499775      1.364385
H       0.157284      0.996222      0.526356
H       0.790932     -1.834357     -0.456116
H       1.333479     -0.312705     -1.222239
H       2.979257      0.623571     -0.464013
