14
Extracted from Q-Chem output
C      -2.363152      0.428531     -0.062637
O      -1.121699     -0.078542     -0.484511
C      -0.138259      0.005913      0.507665
C       1.141096     -0.557307     -0.058580
C       2.835511      0.278927     -0.100899
O       2.187130     -0.435540      0.895772
H      -2.741985     -0.117716      0.810327
H      -2.291956      1.492835      0.193743
H      -3.062023      0.306644     -0.888200
H      -0.415914     -0.576851      1.397287
H       0.039577      1.043026      0.820959
H       1.074840     -1.569388     -0.455924
H       1.411606      0.145168     -0.924988
H       3.296561     -0.505082     -0.760793
