14
Extracted from Q-Chem output
O       2.118817     -0.149213      0.374029
C       0.753367     -0.091374      0.432749
C       0.101659      1.198171     -0.166167
N      -0.891497      0.706319     -1.080066
C      -1.503874     -0.321097     -0.370496
C      -0.052380     -1.101951     -0.523802
O       0.006232     -2.317671     -0.650651
H       2.410776     -0.042785     -0.537250
H       0.488621     -0.314181      1.469532
H      -0.384091      1.758367      0.639933
H       0.833351      1.836152     -0.662448
H       0.271547     -0.419226     -1.504928
H      -2.283505     -0.850232     -0.909409
H      -1.737611     -0.141142      0.679559
