11
Extracted from Q-Chem output
C       1.773673     -1.441421     -0.636749
C       0.805028     -0.662079     -0.283795
C      -0.179860      0.128138      0.067765
C      -1.032270      0.086088      1.252920
N      -1.887168      1.039893      1.228424
N      -1.695096      1.800727      0.044566
C      -0.726773      1.292805     -0.622873
H       2.793854     -1.228942     -0.338848
H      -0.984730     -0.630420      2.061161
H       1.583486     -2.321743     -1.239858
H      -0.392741      1.702368     -1.566174
