11
Extracted from Q-Chem output
C       1.340632     -1.105084     -0.357404
C       1.257203      0.021922      0.191084
C       0.290278      0.940359      0.567132
C      -0.567935     -0.033296      1.140246
N      -1.416407     -0.474531      0.201054
N      -1.456109      0.532402     -0.826371
C      -0.493141      1.346944     -0.612419
H       2.024570     -1.829288     -0.756248
H      -0.331761     -0.659884      1.988567
H      -0.311949     -1.133950     -0.276833
H      -0.277977      2.159818     -1.292270
