15
smiles: [C:1]([C+:2]1[N:3]([H:12])[C:4]([H:13])=[C:5]1[N-:6][O:7][H:15])([H:8])([H:9])[H:10].[H:11][H:14]
C       -1.94026600      -0.55191400      -0.24908200
C       -0.73613400       0.04277800       0.36682700
N       -0.41630300       1.29742800       0.58480000
C        1.01597700       1.15490900       0.59548900
C        0.72352200      -0.28352500       0.47332700
N        1.24604700      -1.43750000       0.46651600
O        2.60958700      -1.38937000       0.60768900
H       -2.82700200       0.04357300      -0.02482900
H       -2.09554800      -1.56377500       0.12556800
H       -1.83663100      -0.61645000      -1.33813200
H        0.14580300       0.93664200      -2.55065400
H       -1.00000400       2.12136800       0.57248800
H        1.55912600       1.58421400       1.43121900
H        0.62329700       1.11583000      -2.00820600
H        2.86749800      -2.31383600       0.58310400
