12
smiles: [C:1](=[O:2])([H:8])[H:9].[C:3](=[O:4])([C:5]([O:6][H:12])([H:10])[H:11])[H:7]
C        2.20186700      -0.55311600       1.02476800
O        1.42065300      -1.36293200       1.42943600
C       -0.31037000       0.50993400      -1.16449600
O        0.83452100       0.82282200      -1.00025700
C       -1.20446600      -0.01039000      -0.05693700
O       -2.56665100      -0.00475500      -0.40520800
H       -0.79878100       0.56928700      -2.16113100
H        2.29614300       0.44956200       1.48418200
H        2.87246300      -0.76273300       0.16943800
H       -0.92435700      -1.05236200       0.12310500
H       -0.99001100       0.54596900       0.86190200
H       -2.90537000       0.89013400      -0.35047100
