16
smiles: [C-:1]([O+:2]=[C:3]1[C:4]([H:11])([H:12])[C:5]([H:13])([H:14])[C:6]1([H:15])[H:16])([H:7])[H:9].[H:8][H:10]
C        2.29864800       0.06571500       0.67039500
O        1.23549100      -0.70832300       0.56216400
C        0.05163500      -0.35561400       0.26233100
C       -0.54104100       0.98373700       0.03936100
C       -1.91348000       0.24976300      -0.00755500
C       -1.22709200      -1.12153300       0.28396000
H        2.22477600       1.09464300       0.35078800
H        1.92232500      -0.12756600      -1.82860000
H        3.21819000      -0.46808300       0.82701900
H        1.21504900      -0.30584900      -1.97837900
H       -0.40446000       1.68069300       0.87843800
H       -0.24132000       1.50710800      -0.87593300
H       -2.40291100       0.29602100      -0.97858900
H       -2.61814000       0.56725800       0.75848700
H       -1.49354000      -1.56635300       1.24789800
H       -1.35897400      -1.88081500      -0.49160700
