16
Extracted from Q-Chem output
C       2.382366      0.000261      0.133057
O       1.230999     -0.703552      0.520266
C       0.107132     -0.363837     -0.237168
C      -0.572383      1.003752     -0.003367
C      -1.928270      0.271657     -0.104619
C      -1.190078     -1.052616      0.188733
H       2.257893      1.083080      0.261383
H       2.637803     -0.198159     -0.916535
H       3.201857     -0.336267      0.766631
H       0.311665     -0.518074     -1.307094
H      -0.379466      1.341988      1.016778
H      -0.368012      1.815335     -0.701584
H      -2.329391      0.298179     -1.118500
H      -2.713178      0.571677      0.587818
H      -1.156090     -1.260693      1.259221
H      -1.492848     -1.952730     -0.345020
