16
Extracted from Q-Chem output
C       2.316348      0.013262      0.391896
O       1.236955     -0.732329      0.530453
C       0.098070     -0.388950      0.015518
C      -0.527810      0.979068     -0.017723
C      -1.899021      0.252459     -0.056686
C      -1.203867     -1.106782      0.238671
H       2.189972      1.087300      0.331040
H       1.871595     -0.120399     -1.478661
H       3.197105     -0.423174      0.836169
H       1.095419     -0.298274     -1.620056
H      -0.352945      1.523608      0.920592
H      -0.288759      1.644077     -0.847852
H      -2.363834      0.282197     -1.040637
H      -2.624929      0.578083      0.685868
H      -1.339856     -1.449697      1.268448
H      -1.439292     -1.929644     -0.436865
