15
smiles: [C:1]([C:2]([C:3](=[C:4]([H:13])[H:14])[H:12])([H:9])[H:10])([H:6])([H:7])[H:8].[O:5]([H:11])[H:15]
C       -1.63639100      -0.30036800      -0.51873100
C       -0.92648400       0.86943900       0.16067000
C        0.17110900       0.41930700       1.07541900
C        1.44768600       0.75034600       0.95832000
O        1.57898600      -1.84256100      -1.13995700
H       -0.94046000      -0.87422700      -1.13372200
H       -2.06551500      -0.98227600       0.21923100
H       -2.44720200       0.04886600      -1.16038600
H       -0.51788200       1.54940700      -0.59166500
H       -1.65757200       1.44481100       0.73883800
H        1.46697300      -1.22854400      -0.41320700
H       -0.12834900      -0.24247100       1.88658700
H        1.79097600       1.40441500       0.16302400
H        2.19539300       0.38619400       1.65240300
H        1.93252800      -1.32112000      -1.86174600
