11
smiles: [H:9][H:10].[O:1]=[C:2]1[C:3]([H:8])=[C:4]=[N:5][C:6]([H:11])=[N:7]1
O        1.99142000      -2.37071800      -0.11971000
C        1.28747300      -1.40611200      -0.05598800
C        1.95183500      -0.07277200       0.42444600
C        0.96769300       0.76503800       0.39175700
N       -0.22189000       0.94338100       0.15099600
C       -0.74871700      -0.28395800      -0.27161500
N       -0.06943100      -1.36070100      -0.36972000
H        2.99439200      -0.06344800       0.67673400
H       -3.53697400       2.00350800      -0.22797500
H       -2.82128200       2.14683900      -0.08058800
H       -1.80262500      -0.26441200      -0.51826800
