13
Extracted from Q-Chem output
O       1.813207     -2.073112     -1.139546
C       1.181134     -1.092038     -0.876259
C      -0.117608      1.286819      0.902717
C      -0.102084     -0.139679      1.044076
C      -0.141841     -1.094808     -0.151028
C      -0.678886      1.911720     -0.241304
O      -1.862935      2.092452     -0.453930
H       1.555070     -0.084273     -1.166174
H      -1.138442     -0.038266      1.482098
H       0.502728     -0.507173      1.874213
H      -0.910124     -0.762884     -0.856654
H      -0.369711     -2.114309      0.159745
H       0.116362      2.327174     -0.908853
