13
Extracted from Q-Chem output
O       2.186084     -1.278577     -0.420206
C       1.235166     -0.631414     -0.769703
C       0.244247      0.684257      0.506013
C      -0.507953     -0.280313      1.204193
C      -0.197911     -0.980421     -0.230445
C      -0.407754      1.722976     -0.264661
O      -0.863854      2.699073      0.287819
H       1.271995      0.051012     -1.634544
H      -1.574742     -0.133541      1.369470
H      -0.009887     -0.861189      1.974690
H      -1.007473     -0.819028     -0.934575
H      -0.088203     -2.025617      0.042256
H      -0.364582      1.650045     -1.371692
