11
Extracted from Q-Chem output
N       2.110265     -1.258643      0.787367
C       1.092500     -1.314198      1.348516
C       0.272110      1.258490     -0.058313
C      -0.133988      0.131392     -0.921234
C      -1.003592     -0.483621      0.146033
O      -0.226167      1.131796      1.051853
H       0.930119      2.094623     -0.312179
H      -0.677636      0.413585     -1.827467
H       0.730012     -0.495262     -1.154073
H      -1.963336     -0.025985      0.351655
H      -0.854475     -1.500375      0.469937
