16
Extracted from Q-Chem output
C       1.206485     -0.716468      1.194760
C       0.236244      1.064982     -0.499911
C      -0.061935      0.128609     -1.626218
N      -1.108624      0.571258     -0.755363
C      -1.781869     -0.374728      0.110937
C       1.134642      0.689038      0.644639
O       1.823810      1.558384      1.123569
H       0.408152     -0.855505      1.927398
H       2.160440     -0.830471      1.705415
H       1.098221     -1.486187      0.432652
H       0.356090      2.118257     -0.728931
H      -0.072881      0.513454     -2.639792
H       0.286160     -0.897091     -1.530757
H      -2.055057      0.120130      1.044152
H      -2.702571     -0.685841     -0.384437
H      -1.205780     -1.276711      0.343903
