16
Extracted from Q-Chem output
C       0.963705     -0.358975      1.194270
C       1.122788      0.865028     -0.800280
C       0.032101      0.105719     -1.416393
N      -0.918957      0.376229     -0.397435
C      -1.695051     -0.705626      0.150768
C       0.538577      1.057577      0.516553
O       0.477130      2.009944      1.276046
H       0.237625     -0.474251      1.998295
H       1.949428     -0.183844      1.619831
H       0.980341     -1.245990      0.566328
H       1.920202      1.431563     -1.276628
H      -0.205136      0.734272     -2.298730
H       0.203402     -0.917867     -1.769350
H      -1.203050     -1.687029      0.155899
H      -1.980662     -0.454801      1.174470
H      -2.625362     -0.792436     -0.421826
