12
Extracted from Q-Chem output
N      -2.039942     -0.892744     -0.625936
C      -1.746145      0.267211     -0.759266
C      -0.855512      1.094621      0.063926
C       0.235358      0.096999      0.487318
C       1.068230     -0.768312     -0.368130
N       1.581480      0.423040      0.293803
H      -0.368811      1.952846     -0.401371
H      -1.485302      1.437830      0.883109
H      -1.428757     -1.344239      0.124166
H       1.035393     -0.691434     -1.451461
H       1.321585     -1.753861      0.009281
H       2.183995      0.308729      1.098262
