21
Extracted from Q-Chem output
C      -2.244145      0.861578     -1.195636
C      -1.653146      0.643350      0.183457
C      -0.862465     -1.852032     -0.119582
C       0.467112     -1.494166      0.314078
C       0.934436     -0.108462     -0.078890
O       2.019436      0.357937      0.586870
C       2.911517      1.155343     -0.163306
H      -3.057549      1.593074     -1.165432
H      -2.641815     -0.063610     -1.612790
H      -1.499467      1.242770     -1.899589
H      -1.470858      1.604681      0.677955
H      -2.303176      0.067491      0.830619
H      -1.497088     -2.446863      0.523794
H      -1.077594     -1.909165     -1.180462
H       1.202395     -2.103695     -0.243696
H       0.637454     -1.643950      1.380878
H       0.976607      0.072985     -1.161757
H      -0.419893      0.366596      0.156228
H       3.339649      0.584930     -0.994539
H       3.707419      1.465126      0.510944
H       2.408698      2.043853     -0.557607
