12
Extracted from Q-Chem output
C       1.492585      0.147247     -0.829354
C       0.128296      0.109118     -0.251136
O      -0.550629      1.339693      0.142062
C      -0.503191     -0.612571      0.956412
C      -1.503020      0.252297      0.183960
O      -1.016297     -0.280292     -1.068967
H       1.794227     -0.859435     -1.117920
H       2.194098      0.531704     -0.089472
H       1.498629      0.792426     -1.707006
H      -0.620776     -1.690749      0.872019
H      -0.208507     -0.261237      1.942754
H      -2.561421      0.464283      0.308494
