12
Extracted from Q-Chem output
C       1.504960      0.157415     -0.800466
C       0.194077      0.253633     -0.122707
O      -0.440780      1.390967      0.086791
C      -0.495598     -0.598411      0.921001
C      -1.552183      0.108298      0.088131
O      -1.237150     -0.304952     -1.117851
H       1.720825     -0.873067     -1.073717
H       2.267600      0.507189     -0.099224
H       1.511177      0.794188     -1.682571
H      -0.498826     -1.678715      0.804234
H      -0.307365     -0.255244      1.936556
H      -2.553083      0.447889      0.362071
