11
smiles: [C:1](=[O:2])([H:6])[H:8].[C:3](=[C:4]([O:5][H:7])[H:11])([H:9])[H:10]
C       -1.89556100       0.70818400       0.35780300
O       -1.41429900       0.31003300       1.37747300
C        1.00528800      -1.24438300      -0.61785400
C        1.61413800      -0.10498300      -0.32294100
O        1.28429100       0.75792400       0.66577300
H       -1.27227400       0.99198500      -0.51177300
H        0.51984100       0.42177200       1.14139900
H       -2.98994400       0.81467300       0.22890500
H        1.36443200      -1.85027800      -1.43646800
H        0.14445200      -1.60070200      -0.06272700
H        2.47450200       0.25538700      -0.87482700
