11
Extracted from Q-Chem output
C      -1.229893      0.667360      0.380634
O      -1.098917     -0.485879     -0.171529
C       0.654335     -1.215791     -0.069324
C       1.226256     -0.072780     -0.589122
O       1.204837      0.992010      0.131178
H      -1.450350      0.702653      1.455901
H       0.063719      1.154055      0.401303
H      -1.647550      1.462578     -0.245740
H       0.543518     -2.098376     -0.684411
H       0.627539     -1.358983      1.001998
H       1.410714      0.023176     -1.660787
