10
Extracted from Q-Chem output
O      -1.915524      0.041199      0.590175
C      -0.731182     -0.262719      0.003984
C       0.445481      0.522574      0.470280
C       1.749564      0.247099     -0.082200
N       1.623383     -0.254513      1.046175
N      -0.611573     -1.141856     -0.887538
H      -1.782515      0.655506      1.316538
H       0.238748      1.481067      0.942155
H       2.458501      0.317251     -0.893005
H      -1.496717     -1.608715     -1.067024
