15
Extracted from Q-Chem output
O      -1.522640      1.547463      0.186809
C      -1.617847      0.290082     -0.456865
C      -0.836801     -0.726243      0.359346
C       0.635406     -0.493541      0.332916
O       1.183458     -0.608140     -0.907330
C       1.375850     -0.210210      1.397470
O       2.747769     -0.096586      1.247387
H      -1.869484      2.221424     -0.397994
H      -1.208199      0.334738     -1.471939
H      -2.664403     -0.032906     -0.523154
H      -1.045080     -1.723889     -0.039768
H      -1.189135     -0.702376      1.392136
H       3.056805      0.676513      1.721682
H       0.961181     -0.120166      2.392694
H       2.126325     -0.426266     -0.820569
