15
Extracted from Q-Chem output
O      -1.549794      1.619178      0.037008
C      -1.679588      0.306895     -0.477686
C      -0.885938     -0.623476      0.417336
C       0.598788     -0.400751      0.286702
O       1.146207     -0.318542     -0.824809
C       1.390688     -0.264730      1.452270
O       2.871826     -0.225182      0.947151
H      -1.801101      2.246328     -0.641195
H      -1.285743      0.240280     -1.496746
H      -2.731297     -0.004382     -0.488097
H      -1.085042     -1.658974      0.125204
H      -1.199719     -0.499183      1.456076
H       2.340190      0.672763      1.351627
H       1.302709     -0.872868      2.339476
H       2.639221     -0.253566     -0.033885
