14
Extracted from Q-Chem output
N       1.654952     -1.522832     -0.591758
C       1.155365     -0.487575     -0.149508
O       1.625149      0.794877     -0.120988
C       0.537831      1.595187     -0.661232
C      -0.696833      0.918704     -0.167039
C      -0.802888     -1.262359     -1.147649
C      -0.387980     -0.434185      0.077683
H       0.354297     -1.959466     -0.941716
H       0.643829      1.596226     -1.753930
H       0.618636      2.622062     -0.303701
H      -1.552617      1.463755      0.211738
H      -0.584558     -0.792331     -2.107691
H      -1.805203     -1.691691     -1.123267
H      -0.799900     -0.879930      0.983354
