12
Extracted from Q-Chem output
O       2.018079      0.875437     -0.013244
C       1.390196     -0.372946     -0.174982
C      -0.049206     -0.214848     -0.642008
C      -1.895532      0.180649      0.724613
N      -0.771200      0.580269      0.331077
H       1.402945      1.429939      0.477499
H       1.406146     -0.947454      0.761725
H       1.963032     -0.930283     -0.918613
H      -0.512467     -1.197398     -0.811375
H      -2.363579     -0.741584      0.357901
H      -2.445085      0.765013      1.460160
H      -0.048076      0.338938     -1.585291
