12
Extracted from Q-Chem output
O       1.661960      0.506170      0.628387
C       1.106718     -0.572206     -0.070755
C      -0.279834     -0.223616     -0.600373
C      -1.260323      0.276887      0.546773
N      -0.905521      1.359895     -0.177760
H       1.058770      1.258899      0.501679
H       1.044701     -1.442690      0.590913
H       1.743107     -0.846384     -0.920755
H      -0.841020     -1.001576     -1.118080
H      -0.778254      0.080429      1.514115
H      -2.273386     -0.141459      0.470613
H      -0.201161      0.567946     -1.390230
