14
Extracted from Q-Chem output
C      -0.709643      1.604067      1.101186
N      -0.600563      0.593445      0.068923
C      -0.975336     -0.740308      0.484598
C       1.844907     -1.168272     -1.758830
C       1.176358     -0.249754     -1.114536
N       0.614314      0.690782     -0.571289
H      -1.747956      1.665226      1.428192
H      -0.412232      2.563862      0.683692
H      -0.075100      1.386974      1.972484
H      -0.252350     -1.172610      1.193172
H      -1.040703     -1.394717     -0.384931
H      -1.954529     -0.696344      0.959800
H       1.642335     -1.362344     -2.804143
H       2.610175     -1.746467     -1.258738
