14
Extracted from Q-Chem output
C      -0.452821      1.295107      0.439297
N      -0.198246     -0.108437      0.296048
C      -1.211874     -0.889392      0.941132
C       1.384468     -0.421450     -1.799885
C       1.972196     -0.404408     -0.581579
N       2.168541     -0.347022      0.574778
H      -1.402113      1.571076     -0.042439
H       0.352630      1.871650     -0.016966
H      -0.544183      1.577405      1.496888
H      -1.317218     -0.611259      1.998972
H      -0.972146     -1.950090      0.869378
H      -2.192899     -0.714042      0.474987
H       1.368176      0.475186     -2.403715
H       1.130608     -1.366610     -2.258087
