19
Extracted from Q-Chem output
C       2.811564      0.612089      0.431802
C       1.813077     -0.471202      0.100550
O       0.533815      0.116052     -0.204134
C      -0.685462     -0.995200     -0.218382
C      -1.347231     -0.702359      1.001213
C      -2.016466     -0.351656     -0.306231
C      -2.249288      1.075622     -0.749568
H       2.502868      1.168302      1.318126
H       2.917013      1.311314     -0.397889
H       3.786409      0.165103      0.633975
H       1.679041     -1.168411      0.934472
H       2.111944     -1.034059     -0.784106
H      -0.288591     -1.856839     -0.740413
H      -1.708708     -1.451519      1.692732
H       0.023385      0.333280      0.701574
H      -2.768058     -1.034827     -0.712345
H      -2.269543      1.163417     -1.839673
H      -3.207672      1.431749     -0.364911
H      -1.476748      1.744281     -0.367831
