19
smiles: [C:1]([H:8])([H:9])([H:10])[H:19].[C:2](\[C:3]([H:12])([H:13])[H:14])(=[C:4](/[C:5]([C:6](=[O:7])[H:18])([H:16])[H:17])[H:15])[H:11]
C        1.03674800       1.94763600       1.81754900
C        0.62175200      -1.17449800      -0.51934800
C        1.62287100      -1.76209800      -1.46079100
C       -0.66394200      -0.99891800      -0.78778300
C       -1.65209200      -0.39606100       0.16791200
C       -2.19940000       0.91330100      -0.34632300
O       -2.28312300       1.91667600       0.30464200
H        1.49383100       2.82758900       2.26760400
H        1.17466300       1.09053400       2.47480900
H        1.50599100       1.74727900       0.85549300
H        0.99462300      -0.87267500       0.45766700
H        2.42764800      -1.05111300      -1.66377000
H        1.16427700      -2.04024100      -2.41057300
H        2.08658000      -2.65347900      -1.03091300
H       -1.04628400      -1.29542400      -1.76298700
H       -2.51101900      -1.06930800       0.28608500
H       -1.21717300      -0.22946200       1.15393500
H       -2.53737400       0.90059500      -1.40519000
H       -0.02750900       2.12632700       1.67169200
