8
Extracted from Q-Chem output
O      -2.504416     -0.633106      0.553372
C      -1.460158     -0.180064      0.266549
C      -0.817150      0.844735     -0.464534
C       0.383050      1.063911     -0.813933
C       1.376166      0.193505     -0.278822
O       1.053991     -0.986776     -0.006071
H      -0.104428     -0.872324      0.246297
H       2.386317      0.521871     -0.039074
