12
Extracted from Q-Chem output
C      -1.126661     -0.754312     -0.643482
C      -0.221694     -0.115220      0.422131
C       1.125534     -0.699289      0.396436
C       2.210222     -1.202578      0.365324
C      -0.171783      1.344695      0.270151
C      -0.161810      2.533019      0.133942
H      -0.724620     -0.570506     -1.639399
H      -1.187455     -1.830770     -0.483969
H      -2.127441     -0.326644     -0.586103
H      -0.649024     -0.325279      1.408487
H       3.178437     -1.643715      0.340924
H      -0.143704      3.590600      0.015559
