12
Extracted from Q-Chem output
C      -1.356880     -0.261479     -1.128611
C       0.174791     -0.175103      1.023492
C       1.407249     -0.826753      0.759317
C       2.444846     -1.390702      0.541176
C      -0.074943      1.105164      0.613783
C      -0.561273      1.977499     -0.101908
H      -0.323606     -0.068114     -1.318094
H      -1.915927     -0.804446     -1.888061
H      -1.877760      0.030350     -0.243576
H      -0.457533     -0.606833      1.792024
H       3.367167     -1.886098      0.350952
H      -0.815182      2.949113     -0.462854
