17
Extracted from Q-Chem output
C       2.008021      0.459649     -0.549385
O       0.604289      0.412457     -0.625373
C      -0.006831     -0.466096      0.298521
C      -0.141919      0.219137      1.658887
C      -1.339049     -0.901355     -0.239071
C      -1.810305     -0.606896     -1.437990
O      -0.873797      1.415363      1.570060
H       2.445324     -0.532926     -0.710835
H       2.361920      0.846409      0.413081
H       2.347521      1.128869     -1.338502
H       0.624289     -1.359359      0.431136
H      -0.669332     -0.440822      2.351577
H       0.857685      0.400743      2.076799
H      -1.930120     -1.501419      0.447290
H      -1.237273     -0.004664     -2.131323
H      -2.784037     -0.957733     -1.755940
H      -0.615730      1.844326      0.748359
