17
Extracted from Q-Chem output
C       2.431699      0.166247     -0.390633
O       1.129792     -0.051873     -0.867380
C       0.287621     -0.683284      0.076487
C      -0.102093      0.178442      1.207451
C      -1.066855     -1.042389     -0.423061
C      -1.959368      0.072269     -0.576230
O      -1.891826      0.816128      0.773323
H       2.928199     -0.780305     -0.137667
H       2.453341      0.811216      0.498495
H       2.990962      0.657577     -1.185617
H       0.752674     -1.594513      0.477497
H      -0.321750     -0.303274      2.149068
H       0.203384      1.219570      1.268904
H      -1.463845     -2.011932     -0.155944
H      -1.634692      0.842077     -1.287674
H      -2.993914     -0.208985     -0.767650
H      -1.973934      1.777381      0.644938
