14
smiles: [C:1](=[C:2]=[O:3])([H:7])[H:9].[C:4]1([H:8])([H:10])[C:5]([H:11])([H:12])[C:6]1([H:13])[H:14]
C       -2.44830100       0.96660300      -0.14701500
C       -1.73311500       1.50492400       0.80607000
O       -1.10108700       1.98051700       1.64813500
C        0.55439200      -1.05917100       0.29224100
C        1.06233800       0.03112100      -0.60184700
C        2.00491600      -1.01143900      -0.08108700
H       -2.01500100       0.19038200      -0.75786000
H        0.28264900      -0.79886200       1.30680300
H       -3.45952800       1.30702000      -0.30540200
H       -0.05873400      -1.83419100      -0.14843400
H        1.13410100       1.03040100      -0.19296800
H        0.79411300      -0.00387300      -1.64958700
H        2.37409300      -1.75380200      -0.77644900
H        2.71739100      -0.72042100       0.67939000
