14
Extracted from Q-Chem output
C      -2.134175      0.268660      0.446524
C      -0.913967      0.878923      0.218786
O      -0.368511      1.901988      0.556365
C       0.128762     -0.353772     -0.416392
C       1.476269      0.237290     -0.739794
C       1.419104     -0.775662      0.321770
H      -2.396778     -0.611154     -0.124264
H      -0.661007     -0.446542      0.630270
H      -2.923498      0.802677      0.961316
H      -0.303104     -1.039627     -1.133634
H       1.581040      1.275710     -0.449955
H       1.883156     -0.045173     -1.701710
H       1.772256     -1.780267      0.131295
H       1.503693     -0.439870      1.347802
