18
smiles: [C:1]([C:2]1=[N+:4]([C-:5]([C:6]([O:7][H:18])([H:16])[H:17])[H:14])[C:3]1([H:12])[H:13])([H:8])([H:9])[H:10].[H:11][H:15]
C        2.26843600      -0.31948300      -1.10871400
C        1.31528100      -0.54294300       0.00217300
C        0.95796000       0.09043100       1.29062300
N        0.08307100      -0.13338100       0.14829000
C       -1.09231200       0.23892900      -0.28230800
C       -2.09837000       0.79148900       0.66405600
O       -1.90521000       2.16717500       0.99692300
H        1.95270000      -0.86136300      -2.00148900
H        3.26235200      -0.67392500      -0.83932900
H        2.34164200       0.74712800      -1.36898500
H       -0.08031200      -2.71540500      -0.57589200
H        1.14113200       1.14965000       1.49248500
H        0.79634400      -0.52444800       2.17178800
H       -1.30319900       0.08299500      -1.33232500
H       -0.70964600      -2.99527700      -0.85871500
H       -3.10055700       0.64389400       0.24578000
H       -2.05976900       0.26436300       1.62005000
H       -1.73703000       2.64253400       0.18036800
