18
Extracted from Q-Chem output
C       2.318666     -0.467159     -1.257813
C       1.246340     -0.368691     -0.238051
C       0.941709      0.401491      0.985200
N       0.084372      0.287754     -0.187729
C      -1.188831     -0.042884     -0.376426
C      -2.298574      0.604503      0.400446
O      -2.016909      0.837521      1.761221
H       1.922873     -0.889253     -2.182944
H       3.107496     -1.129966     -0.901787
H       2.770815      0.504520     -1.485497
H       0.322124     -1.784120      0.052105
H       1.314212      1.408332      1.172765
H       0.642388     -0.160039      1.871045
H      -1.437778     -0.366607     -1.383065
H      -0.530446     -1.814052      0.105194
H      -2.615467      1.537453     -0.089864
H      -3.159161     -0.066629      0.370825
H      -1.391318      1.560189      1.829155
