14
Extracted from Q-Chem output
O      -1.733055      1.454771      0.833645
C      -0.917448      0.565743      0.241398
C      -1.054661     -0.346740     -0.717613
N       0.287580     -0.965168     -0.848017
C       1.141484      0.284967     -0.781016
C       0.546122      0.434766      0.640589
C       0.634688     -1.110803      0.619799
H      -2.611066      1.386275      0.449597
H      -1.881276     -0.663167     -1.332950
H       0.897859      1.040320     -1.527044
H       2.202994      0.031172     -0.806308
H       0.927031      1.085319      1.426310
H       1.642935     -1.511573      0.740937
H      -0.088535     -1.679839      1.202654
