9
Extracted from Q-Chem output
O      -2.354770     -0.224131     -0.164790
C      -1.558588      0.765526      0.118791
C      -0.167220      0.247073      0.051238
N       0.894403      0.949083      0.297622
C       1.888860      0.038580      0.106135
N       1.475802     -1.145694     -0.236962
O       0.118910     -1.021061     -0.275971
H      -3.263356      0.096556     -0.124856
H       2.938588      0.256960      0.223631
