14
Extracted from Q-Chem output
C       1.809850      0.805077     -0.513859
N       0.383964      0.675304     -0.339824
C      -0.235418     -0.339291      0.194404
N       0.321103     -1.424529      0.671561
C      -1.775084     -0.297081      0.293024
O      -2.266466     -1.314014      0.815994
N      -2.221177      0.813670     -0.202757
H       2.198114      0.026682     -1.176133
H       2.328693      0.750470      0.446852
H       2.025828      1.771916     -0.960970
H      -0.376025     -2.072944      1.035614
H       1.305173     -1.617737      0.684052
H      -0.294637      1.382916     -0.628943
H      -3.232975      0.847180     -0.140973
