16
Extracted from Q-Chem output
C       3.038146     -0.462458     -0.324631
O       1.678143     -0.901573     -0.407752
C       0.765499     -0.060334     -0.029896
C      -1.992079      1.353935      0.227754
C      -0.570784     -0.705293     -0.235481
C      -1.671731     -0.081898      0.620311
H       3.581305     -1.176657      0.293110
H       3.453111     -0.459021     -1.332016
H       3.063307      0.534618      0.112244
H      -2.380070      1.402147     -0.793514
H      -2.743787      1.787502      0.889785
H      -1.095230      1.973469      0.274109
H      -0.794228     -0.538385     -1.300636
H      -0.509279     -1.792426     -0.102097
H      -1.364001     -0.116335      1.669664
H      -2.572309     -0.697696      0.544999
