16
Extracted from Q-Chem output
C       2.232358      0.124878      0.135428
O       1.102183     -0.722767      0.106533
C       0.083560     -0.288993     -0.691503
C      -0.680409      1.256121      0.070960
C      -0.997728     -1.343372     -0.660157
C      -1.475137     -0.489017      0.422196
H       3.096463     -0.502122      0.351125
H       2.365614      0.617225     -0.831051
H       2.136096      0.879612      0.922330
H      -1.271433      1.672349     -0.739637
H      -1.123479      1.555447      1.031451
H       0.291045      1.749274      0.058443
H      -1.608395     -1.378106     -1.556443
H      -0.617535     -2.315805     -0.366907
H      -1.134869     -0.735505      1.418739
H      -2.466418     -0.060609      0.359673
