16
Extracted from Q-Chem output
C       1.972258      0.183778      0.378467
C       0.572260      0.046665     -0.130534
C      -0.151283      1.139765     -0.603117
C      -1.500863      1.311589     -0.448694
C      -1.254446     -1.069577      0.523619
C      -0.025597     -1.331547     -0.204166
H       2.622486     -0.603681     -0.016935
H       2.387838      1.160477      0.125592
H       2.001588      0.102164      1.470113
H       0.413367      1.885338     -1.167577
H      -1.980665      1.068755      0.483195
H      -2.069928      1.932001     -1.136109
H      -1.200907     -0.916269      1.593248
H      -2.231719     -1.201988      0.086423
H      -0.174773     -1.669427     -1.231280
H       0.640056     -2.036809      0.302532
