11
Extracted from Q-Chem output
C      -1.379173      0.315765     -0.727125
C      -0.416603     -0.373235     -1.317886
O       0.931421     -0.284501     -1.092280
C       1.411057      0.243436      0.064952
N       0.872186      0.072731      1.187814
C       0.133972      0.039390      2.181437
H      -1.207380      1.040097      0.056260
H      -2.397408      0.142199     -1.045105
H      -0.603253     -1.094799     -2.102621
H       2.364484      0.740933     -0.039395
H       0.320600     -0.839105      2.814819
