11
Extracted from Q-Chem output
C      -1.259328      0.304675     -0.418992
C      -0.343084     -0.419002     -1.084485
O       0.972146     -0.100944     -1.116194
C       1.534425      0.384446      0.034508
N       0.976082      0.193232      1.153536
C      -0.194477     -0.063918      1.579740
H      -1.061841      1.317635     -0.104360
H      -2.288564     -0.025779     -0.418790
H      -0.557053     -1.347447     -1.598546
H       2.520373      0.797826     -0.101981
H      -0.283216     -1.041185      2.073621
