14
Extracted from Q-Chem output
O       2.147040     -0.518710      0.284077
C       1.183394      0.070887     -0.574879
C      -0.092506      0.356404      0.165201
O       0.076397      1.227073      1.242880
C      -1.128612     -0.726882      0.298670
C      -1.377401      0.489441     -0.562055
H       1.826107     -1.386936      0.539247
H       0.984988     -0.562243     -1.447502
H       1.625576      1.006368     -0.921886
H       0.825053      0.900434      1.751374
H      -1.655550     -0.778801      1.241575
H      -0.968573     -1.677933     -0.195763
H      -1.380237      0.368290     -1.637967
H      -2.065676      1.232608     -0.182974
