14
Extracted from Q-Chem output
C       1.641888     -0.470690     -0.986098
O       0.335842      0.060443     -1.067313
C      -0.572491     -0.562519     -0.170930
C      -0.438089     -0.355237      1.291851
C      -1.454354      0.363979      0.565505
O      -0.827890      1.809741      0.498347
H       1.661851     -1.509984     -1.332572
H       2.012215     -0.430842      0.042970
H       2.279236      0.131234     -1.633005
H      -1.020415     -1.452498     -0.611683
H      -0.119205      1.324334      1.146719
H      -0.632250     -1.127717      2.021871
H      -2.530282      0.454906      0.572727
H      -0.365429      1.800582     -0.365711
