14
Extracted from Q-Chem output
C       1.729772     -0.195771      0.023993
C       0.658560      0.357129      0.913723
C      -0.716649      0.766484      0.412540
C      -1.309711     -0.127192     -0.664499
O      -0.659149     -0.012319     -1.917173
C       1.170483     -1.051941      0.808888
H       0.184273     -0.465394     -1.855704
H       2.469714      0.026032     -0.726370
H       0.983604      0.949123      1.771227
H      -0.677056      1.792096      0.032104
H      -1.405854      0.774235      1.264671
H      -2.348946      0.154565     -0.842262
H      -1.314664     -1.172413     -0.326143
H       1.104836     -2.062137      1.174668
