12
smiles: [C:5]1([H:9])=[N:7][C:6]1([H:10])[H:11].[O:1]=[C:2]=[C:3]=[C:4]([H:8])[H:12]
O        0.86558300      -2.53484100       0.48296300
C        1.20352600      -1.43198100       0.61787200
C        1.70324300      -0.27639400       0.90327600
C        1.77145400       1.02607800       0.73102700
C       -1.18193600      -0.14494400      -1.16975800
C       -1.81844100       0.55735400      -0.07910000
N       -0.91623600       1.06955300      -1.19455100
H        2.46075500       1.63853100       1.30634900
H       -0.96180300      -1.04144900      -1.73194400
H       -1.38883400       0.53389900       0.91716600
H       -2.86572200       0.83585700      -0.13819600
H        1.14620100       1.55335300       0.01294900
