10
Extracted from Q-Chem output
O      -2.131558      0.457959      0.633513
C      -0.885513      0.067219      0.296656
C       0.328864      0.778073      0.422713
C       1.268348     -0.092199     -0.072540
N       0.608386     -1.200639     -0.442456
N      -0.715607     -1.125808     -0.224884
H      -2.094049      1.340363      1.004441
H       0.490175      1.769204      0.813188
H       2.336449      0.002224     -0.184063
H       0.984734     -2.038056     -0.844468
