10
Extracted from Q-Chem output
O      -2.010057      0.150882      0.462472
C      -0.690288      0.016384      0.238797
C       0.398875      0.828272      0.442005
C       1.479483      0.046824     -0.022515
N       1.094818     -1.130136     -0.468252
N      -0.242419     -1.128761     -0.298645
H      -2.179851      1.012239      0.847390
H       0.414526      1.821152      0.859038
H       2.526474      0.308866     -0.044832
H      -0.791561     -1.925722     -0.564301
