19
Extracted from Q-Chem output
C       2.151140     -0.211094     -0.482914
C       0.967682     -0.354051      0.410564
O       1.586963      0.538745      1.991004
C      -0.139272      0.517150      0.334095
C      -0.752690      1.225940     -0.814433
C      -1.572036      0.279096      0.046345
C      -2.045373     -1.026097     -0.543437
H       1.910451     -0.707660     -1.429660
H       3.045568     -0.669572     -0.066658
H       2.343434      0.839419     -0.696076
H       0.830756     -1.332507      0.866691
H       1.428602      0.035649      2.798455
H       0.549753      0.947172      1.494857
H      -0.533197      0.887876     -1.824141
H      -0.940876      2.290799     -0.738482
H      -2.288304      0.753911      0.711424
H      -1.308716     -1.422611     -1.248250
H      -2.988631     -0.903049     -1.081481
H      -2.204035     -1.782427      0.229691
