12
smiles: [C:1]([C:2]#[C:3][H:10])([H:7])([H:8])[H:9].[N-:4]([N+:5]#[C:6][H:12])[H:11]
C       -2.67606100      -0.80199700       0.02777600
C       -1.22613800      -0.93718500       0.07773000
C       -0.03498800      -1.04792000       0.11953400
N        3.11363300       0.15648900      -0.01067100
N        2.43274500       1.17964200       0.06498200
C        1.79911900       2.14224700       0.32993400
H       -2.96517100       0.24967200       0.04832700
H       -3.07367100      -1.24737700      -0.88504000
H       -3.13851000      -1.29963200       0.88113000
H        1.02396700      -1.14705700       0.15724900
H        3.83798700       0.28944900      -0.71555400
H        0.87265600       2.52137600      -0.06378600
