15
smiles: [H:8][H:11].[O:1]=[C:2]([C@:3]1([H:10])[C:4]([H:12])([H:13])[C:5]([H:14])([H:15])[C:6]1=[O:7])[H:9]
O        2.07207900       1.52879200      -0.28701100
C        1.62546200       0.48599000       0.10209000
C        0.38014900      -0.15912600      -0.44393800
C       -0.42735400       0.63357400      -1.49056500
C       -1.57344700       0.86649700      -0.47190900
C       -0.82277300      -0.00849400       0.51925800
O       -1.05466100      -0.44772500       1.60023200
H        1.14801700      -2.95872100       1.67827500
H        2.10354400      -0.06558900       0.93432400
H        0.59271500      -1.20935400      -0.66052900
H        0.62342200      -2.45481000       1.83715200
H        0.07785200       1.53680800      -1.82534500
H       -0.71861500       0.03875400      -2.35352600
H       -2.56296100       0.49287200      -0.73631700
H       -1.67025300       1.89517900      -0.11976500
