12
Extracted from Q-Chem output
C      -1.868461      0.371473      0.180515
C      -0.590572     -0.321828     -0.091770
C      -0.151133     -1.507264     -0.513932
O       1.235909     -1.240214     -0.459682
C       0.842144      0.027305     -0.012168
O       2.885350      0.806029      0.194293
N       1.527251      1.025694      0.310486
H      -1.932258      0.678772      1.226005
H      -1.963760      1.269146     -0.432928
H      -2.711160     -0.284819     -0.036355
H      -0.516069     -2.469066     -0.840095
H       3.261113      1.643781      0.472481
