12
Extracted from Q-Chem output
C      -1.867550      0.436937      0.197855
C      -0.471594     -0.032947      0.001570
C      -0.020146     -1.225338     -0.419809
O       1.360459     -1.179032     -0.439524
C       1.633429      0.050611     -0.024529
O       2.920985      0.352419      0.045579
N       0.624064      0.794402      0.257849
H      -2.025926      0.746458      1.232241
H      -2.076524      1.296522     -0.441140
H      -2.580448     -0.352477     -0.040062
H      -0.477585     -2.148676     -0.726911
H       2.980837      1.261121      0.356881
