12
Extracted from Q-Chem output
C      -1.944517      0.349420      0.185656
C      -0.596455     -0.202446     -0.035871
C      -0.058527     -1.302619     -0.503683
O       1.360012     -1.105861     -0.389139
C       1.224526      0.098989      0.137195
O       2.970457      0.623250      0.466424
N       1.081348      1.179592      0.630140
H      -2.107613      0.559993      1.243637
H      -2.076651      1.283690     -0.361616
H      -2.710020     -0.357491     -0.146254
H      -0.374886     -2.249593     -0.916241
H       3.232489      1.134350     -0.306565
