21
smiles: [C:1]([C:2](=[C:3]([H:12])[H:13])[H:11])([H:8])([H:9])[H:10].[C:4](\[C:5]([H:15])([H:16])[H:17])(=[C:6](\[C:7]([H:19])([H:20])[H:21])[H:18])[H:14]
C        1.69545000      -0.91862400       0.84877500
C        2.34231900      -1.09688400      -0.48770400
C        1.69583100      -1.24275900      -1.63373500
C       -2.11385000       0.10944500       0.01761400
C       -2.07745600       0.11637400       1.51410000
C       -1.37158400       0.82840900      -0.81675900
C       -0.31107000       1.82689600      -0.47164900
H        0.60747900      -0.91888600       0.76811200
H        1.98869400      -1.71750200       1.53480500
H        2.00627400       0.02332100       1.30803400
H        3.43008500      -1.10261500      -0.49644200
H        2.22439600      -1.36490400      -2.57128200
H        0.61124200      -1.24323400      -1.67677700
H       -2.83910000      -0.57005700      -0.42306900
H       -1.32950800       0.79832600       1.91636500
H       -3.04961600       0.40750100       1.92074500
H       -1.86072300      -0.88409600       1.89758400
H       -1.54184600       0.68528800      -1.88093800
H        0.65032700       1.52908200      -0.89854700
H       -0.17601700       1.94897300       0.60226500
H       -0.55411300       2.80640700      -0.89185900
