21
Extracted from Q-Chem output
C       2.178160     -0.322379      0.688487
C       1.427206     -0.554018     -0.585803
C       0.178950     -1.247065     -0.593658
C      -1.534817     -0.174461     -0.558638
C      -2.142097     -0.299938      0.799093
C      -0.320424      0.529996     -0.853388
C       0.069713      1.726806     -0.036998
H       1.511955     -0.361572      1.554742
H       2.947358     -1.088064      0.855037
H       2.686817      0.646142      0.721920
H       1.954109     -0.457363     -1.525825
H      -0.077624     -1.810465     -1.483655
H      -0.126139     -1.740635      0.328720
H      -2.063135     -0.617850     -1.391208
H      -1.777208      0.454685      1.500038
H      -3.227284     -0.186426      0.750035
H      -1.955486     -1.281872      1.270215
H      -0.150100      0.671746     -1.913666
H       1.012631      2.154172     -0.372452
H       0.145245      1.505556      1.026385
H      -0.734530      2.460814     -0.164682
