14
smiles: [C:1]([C:2](=[C:3]=[C:4]=[C:5]([O:6][H:14])[H:12])[H:11])([H:7])([H:8])[H:9].[H:10][H:13]
C       -2.30185300       0.35915600      -0.58606100
C       -1.11425200       0.34908500      -1.50156400
C        0.11935000       0.13294500      -1.11717300
C        1.31027800      -0.07643900      -0.74082700
C        2.55121000      -0.29150500      -0.36985100
O        2.96863700      -0.53918300       0.89563300
H       -2.80956500       1.32644900      -0.62040800
H       -3.03002000      -0.39835300      -0.88696900
H       -2.00824300       0.16197000       0.44435700
H        0.19374400      -0.69000400       2.78979600
H       -1.29043600       0.53403000      -2.55771600
H        3.37656400      -0.28872900      -1.07132100
H        0.04750800      -0.55295800       2.07263800
H        2.20663900      -0.53168200       1.48201800
