14
Extracted from Q-Chem output
C      -1.995818      0.779898     -0.287417
C      -1.022895     -0.216880     -0.863916
C       0.220901      0.139967     -1.316339
C       1.413999      0.057953     -0.999429
C       2.018966     -0.581463      0.078603
O       2.641578      0.092227      1.080947
H      -2.593140      1.242457     -1.076576
H      -2.682421      0.282937      0.398852
H      -1.474422      1.571238      0.251108
H      -0.266306     -0.931387      0.318929
H      -1.479814     -1.083216     -1.339608
H       2.492628     -1.548367     -0.067788
H       0.623724     -1.071495      0.613826
H       2.257083      0.971353      1.144518
