11
Extracted from Q-Chem output
N       1.018656      0.211911      0.535902
C       1.634430     -0.844796      0.070722
C       0.436010     -1.670671     -0.319506
N      -0.703154     -1.134015     -0.095682
C      -0.448157      0.153984      0.462989
C      -0.928845      1.256988     -0.482121
O      -1.405555      2.282018     -0.097784
H       1.501728      1.018045      0.901814
H       0.507500     -2.657763     -0.762194
H      -0.915203      0.278003      1.441687
H      -0.755809      1.040043     -1.553898
