13
Extracted from Q-Chem output
O      -0.942854     -1.978712      0.591360
C      -0.688988     -0.565192      0.994290
C       0.554712     -0.479937      0.127021
C       0.913485      0.842215     -0.468839
C       0.310514      1.989763     -0.201300
C      -1.699512     -0.734922     -0.123321
C      -0.424256     -1.352055     -0.656373
H      -0.866935     -0.327822      2.037544
H       1.441395     -1.001957      0.506992
H       1.741704      0.826092     -1.172146
H       0.623403      2.910951     -0.676542
H      -0.520061      2.055384      0.492930
H      -0.291740     -2.010130     -1.507994
