13
Extracted from Q-Chem output
O      -1.015665     -1.815424      0.515084
C      -0.496135     -0.570203      1.095829
C       0.722344     -0.624945      0.139003
C       1.145717      0.750824     -0.239555
C       0.134870      1.575712     -0.420005
C      -1.312186      0.141996      0.010750
C      -0.558743     -1.026040     -0.636618
H      -0.519787     -0.455974      2.177864
H       1.475192     -1.395007      0.315015
H       2.185097      1.038617     -0.356041
H       0.141618      2.622752     -0.699221
H      -1.186587      1.304430     -0.298486
H      -0.655475     -1.459313     -1.630318
