15
Extracted from Q-Chem output
C      -2.267073     -0.130073      0.475936
C      -0.965502      0.492590     -0.010335
C       0.099026     -0.552667     -0.339811
C       1.376719      0.049051     -0.863648
C       2.526695     -0.047447     -0.253979
N       3.617875     -0.237870      0.262096
H      -2.108448     -0.718445      1.383145
H      -3.013717      0.632959      0.701928
H      -2.691303     -0.796966     -0.278810
H      -0.570640      1.175462      0.747784
H      -1.156514      1.103063     -0.898871
H       0.315542     -1.151169      0.549114
H      -0.299650     -1.247876     -1.086965
H       3.893731      0.457078      0.950945
H       1.356295      0.615856     -1.788187
