11
smiles: [C:1]1([H:8])([H:9])/[C:2](=[N:4]/[C:5](=[O:6])[H:11])[O:3]1.[H:7][H:10]
C       -1.42190000       0.63209400       0.57391200
C       -0.05019500       0.39326100       0.25384500
O       -0.25005200       1.36126400       1.13503800
N        0.85934400      -0.17371300      -0.37996700
C        2.20847200       0.10062400      -0.11738700
O        2.74422200      -0.03781200       0.94403900
H       -1.76983200      -2.09736200      -1.54657600
H       -2.03936500       1.23281400      -0.08376400
H       -1.93191600       0.00233500       1.29357300
H       -1.06529400      -1.89083500      -1.42243400
H        2.75721100       0.39068600      -1.02837900
