11
Extracted from Q-Chem output
C      -1.507663      0.206442      0.093537
C      -0.078997      0.461404      0.202477
O      -0.159210      1.578520      0.761899
N       0.787717     -0.394311     -0.236236
C       2.133244     -0.078070     -0.098853
O       3.025051     -0.792535     -0.462722
H      -1.586236     -1.270961     -0.645168
H      -2.066546      0.735395     -0.671657
H      -2.045098     -0.096387      0.986410
H      -0.772774     -1.302786     -0.671308
H       2.328396      0.902154      0.380456
