12
Extracted from Q-Chem output
O       2.128679     -0.809767      0.708342
C       1.176304     -0.451580     -0.110076
C      -0.094978     -1.098033      0.160088
C      -1.206334     -0.145228      0.243134
C      -0.543319      1.164126     -0.126704
C       0.765087      1.019156     -0.270694
H      -0.147020     -2.156762      0.387538
H       1.283649     -0.785596     -1.215602
H      -2.051827     -0.469860     -0.377033
H      -1.607195     -0.121373      1.268348
H      -1.097965      2.088700     -0.214590
H       1.492015      1.787478     -0.488534
