13
Extracted from Q-Chem output
O       2.045011     -1.436790     -0.678015
C       1.606396     -0.321147     -0.569131
C       0.189268     -0.034084     -0.272299
C      -1.146953     -1.136328      1.392771
C      -0.778481     -1.087033     -0.030315
C      -0.216928      1.344779     -0.102603
O      -1.404461      1.670153      0.227630
H       2.248254      0.570655     -0.704704
H      -1.024066     -0.126151      1.824531
H       0.604623      1.590258      0.679319
H      -1.787119     -0.629249     -0.253142
H      -0.651320     -2.043270     -0.528537
H       0.303336      1.921402     -0.924406
