13
Extracted from Q-Chem output
N      -2.147138     -0.305241     -0.045353
C      -0.864674     -0.059132      0.568125
C      -0.192827      1.183503      0.040791
C       1.051216      0.863670     -0.297951
C       1.174228     -0.587534     -0.030122
O       2.296105     -1.286910     -0.256870
N       0.121662     -1.131318      0.426318
H      -2.023318     -0.479693     -1.035536
H      -2.552548     -1.143311      0.350907
H      -0.676566      2.148168     -0.017083
H       1.826397      1.509110     -0.689620
H       2.973783     -0.709217     -0.612779
H      -1.032859      0.077215      1.644451
