17
Extracted from Q-Chem output
C       1.368560     -1.510665     -0.106532
C       0.271732     -0.542852      0.205481
C      -1.181853     -0.903632      0.202267
C      -0.669707      0.149172     -0.745956
C      -0.551586      1.499424      0.116978
C       0.448867      0.733599      1.019222
C      -0.026586      2.088783     -1.070046
H       1.685320     -2.045758      0.792039
H       1.042738     -2.251232     -0.839833
H       2.235785     -0.988738     -0.515531
H      -1.830860     -0.643099      1.030846
H      -1.430504     -1.839307     -0.285311
H      -0.790532      0.044980     -1.815799
H      -1.496398      1.828591      0.556764
H       0.173583      0.657047      2.072918
H       1.445975      1.160927      0.922176
H      -0.887660      2.544224     -1.595706
