17
Extracted from Q-Chem output
C       1.457096     -1.244100     -0.253402
C       0.276411     -0.482958      0.224133
C      -1.086358     -1.003103      0.239786
C      -1.139145      0.292188     -0.537518
C      -0.575459      1.503925      0.151808
C       0.294232      0.730412      1.153148
C       0.309041      1.358699     -1.046711
H       1.769524     -1.926493      0.545908
H       1.206489     -1.846379     -1.126896
H       2.269273     -0.566268     -0.505029
H      -1.634859     -1.029539      1.178716
H      -1.257480     -1.876377     -0.382929
H      -1.666537      0.301926     -1.479811
H      -1.182408      2.373735      0.395222
H      -0.157939      0.493811      2.121148
H       1.273803      1.183045      1.280230
H      -0.214572      1.719551     -1.949883
