12
smiles: [C:1](=[C:2]([H:9])[H:10])([H:6])[H:7].[N:3](=[C:4](/[O:5][H:8])[H:12])\[H:11]
C       -1.76248600       0.42483800       0.63530100
C       -1.53035300      -0.83524900       0.96052800
N        1.27543100      -0.16917600      -1.02075900
C        2.02680900       0.20804200      -0.08563700
O        1.56241000       0.45124100       1.14528300
H       -2.36685600       1.07171100       1.26100900
H       -1.35803400       0.86193100      -0.27055400
H        0.61136500       0.28117100       1.12508200
H       -0.92584400      -1.48217700       0.33502400
H       -1.93471900      -1.27215700       1.86652000
H        1.79426900      -0.30375400      -1.88033200
H        3.10239600       0.38427500      -0.13269200
