12
Extracted from Q-Chem output
C      -1.252630      0.523243      0.831700
C      -0.939283     -0.715141      0.274421
N       1.016184     -0.859857     -0.044748
C       1.622639      0.276988      0.072813
O       1.258886      1.135644      0.949108
H      -1.586072      0.542484      1.864051
H      -1.658688      1.292299      0.184388
H       0.114596      0.955871      1.043534
H      -1.133902     -0.903712     -0.774800
H      -0.953911     -1.602401      0.891875
H       1.314670     -1.388456     -0.854678
H       2.444223      0.568738     -0.595511
