13
Extracted from Q-Chem output
O       2.386583      1.028283     -1.595842
C       2.115204      0.477723     -0.537530
C       0.813584      0.105947     -0.152710
O       0.632452     -0.408751      1.081843
C      -0.586157     -0.672255      1.359597
C      -1.463370     -0.446852      0.175726
C      -0.533511      0.367635     -0.754350
H       2.903016      0.220479      0.200415
H      -0.597969      0.059166     -1.795786
H      -0.788548     -1.109214      2.325013
H      -1.727852     -1.421101     -0.258271
H      -2.398116      0.054801      0.423982
H      -0.767283      1.438511     -0.718708
