15
Extracted from Q-Chem output
C       1.567661     -0.530751      0.339791
C       0.234152      0.041159      0.733769
C       0.317985      1.394682     -1.175607
O      -0.911633      0.796089     -1.515079
C      -1.013001      0.680720     -0.140857
C      -1.015578     -0.702171      0.435540
O      -0.974419     -1.760683     -0.452371
H       2.333408      0.239751      0.299519
H       1.526622     -1.017863     -0.629808
H       1.840159     -1.280589      1.089851
H       0.229919      0.565712      1.683373
H       0.038868      2.417512     -0.815906
H      -1.566614      1.464809      0.360833
H      -1.728062     -0.863168      1.237411
H      -0.923938     -1.397629     -1.344442
