9
Extracted from Q-Chem output
N       1.898807      0.597432      0.070399
C       3.052019      0.772378      0.076931
C       0.548702      0.381779      0.060724
C      -0.120951     -0.792519     -0.149469
N      -1.408659     -0.420841     -0.047516
N      -1.530302      0.880379      0.205687
N      -0.345307      1.377585      0.273330
H       0.206436     -1.796955     -0.351425
H      -2.236772     -0.984939     -0.135121
