9
Extracted from Q-Chem output
N       3.162020      0.152621     -0.181302
C       2.023005      0.212979     -0.056808
C       0.606322      0.253316      0.080277
C      -0.312912     -0.677686     -0.325969
N      -1.481533     -0.139905      0.050437
N      -1.311559      1.042270      0.648734
N      -0.053555      1.289483      0.672343
H      -0.220193     -1.626463     -0.825221
H      -2.411595     -0.506616     -0.062491
