16
Extracted from Q-Chem output
C      -0.897478      0.014741      1.113139
C      -1.213121      0.233522     -0.344213
N      -0.726689      1.498130     -0.895462
C       0.016457      0.267814     -1.175024
C       1.288311      0.146645     -0.386345
C       1.689051     -1.046501      0.208982
O       0.826501     -1.877080      0.643155
H      -0.963809      0.918108      1.719436
H      -1.565398     -0.720048      1.575777
H      -0.009346     -1.039114      1.079264
H      -2.116036     -0.194616     -0.762820
H      -1.278709      1.766851     -1.700508
H      -0.000129     -0.129438     -2.184440
H       0.486003      0.245379      0.819235
H       2.054462      0.890154     -0.574475
H       2.731673     -1.173199      0.521670
