21
smiles: [C:1]([C:2]([C:3]([C:4](=[C:5]([H:17])[H:18])[H:15])([H:13])[H:14])([H:11])[H:12])([H:8])([H:9])[H:10].[O:6]([C:7]([H:19])([H:20])[H:21])[H:16]
C       -2.42328000       0.69866400       0.53213800
C       -1.32288000      -0.33604200       0.33978400
C       -0.89475000      -0.47584200      -1.12170300
C        0.16511500      -1.51452900      -1.32084100
C        1.37361800      -1.28624700      -1.81135900
O        2.11966200       0.14863300       1.05919600
C        2.04434700       1.45304900       0.52532200
H       -2.70800400       0.78821200       1.58192800
H       -3.31863500       0.43100600      -0.03452200
H       -2.09935500       1.68480900       0.19038700
H       -0.44929100      -0.06816100       0.94162600
H       -1.66252200      -1.30851800       0.71102600
H       -1.77353400      -0.73900200      -1.72266900
H       -0.53716100       0.48825000      -1.49649500
H       -0.09829200      -2.52779200      -1.02191200
H        1.88552400      -0.47817500       0.37432300
H        2.10093200      -2.08061600      -1.92727700
H        1.67901800      -0.29150200      -2.12042500
H        2.31447700       2.14191300       1.32492200
H        1.03316600       1.70415700       0.18526400
H        2.74371600       1.60244800      -0.30513200
