16
Extracted from Q-Chem output
C       0.005135     -0.152925     -3.000233
N       0.456755     -0.489203     -1.670006
C       1.082694     -0.678310      2.341132
C       0.921076     -0.513812      1.027014
C      -0.236405      0.107208      0.439680
O      -0.390278      0.125475     -0.832561
C      -1.324534      0.768132      1.210449
H       0.623702     -0.733725     -3.684049
H       0.135193      0.910597     -3.246357
H      -1.045416     -0.418935     -3.178828
H       1.983451     -1.128879      2.736954
H       0.329563     -0.379142      3.061078
H       1.675878     -0.841395      0.322932
H      -2.040807      1.218267      0.525608
H      -1.855417      0.047621      1.839276
H      -0.925632      1.545566      1.866189
