16
Extracted from Q-Chem output
C       0.474267     -0.399165     -2.316447
N       0.593605      0.414068     -1.137866
C       1.532206     -0.385751      1.157489
C       0.452788     -0.374379      0.263433
C      -0.801536      0.465993      0.390630
O      -0.921796      1.010109     -0.723063
C      -1.697304      0.677372      1.529178
H       1.433926     -0.920613     -2.380597
H       0.369158      0.219357     -3.207935
H      -0.329280     -1.146554     -2.265622
H       2.090999     -1.296722      1.304669
H       1.953319      0.544140      1.516763
H       0.107178     -1.388711      0.015166
H      -2.490349      1.390182      1.316325
H      -2.107750     -0.288536      1.833163
H      -1.070998      1.010983      2.361787
