16
Extracted from Q-Chem output
C       2.049953     -0.387493      0.409382
C       1.019933      0.424256     -0.350813
C       0.459508     -0.151872     -1.679272
N      -0.901538     -0.224869     -1.072979
C      -2.416887      0.209991      1.181825
C      -0.419633      0.245195      0.014469
O      -1.020742      0.504547      1.163337
H       1.748237     -1.435278      0.473927
H       2.175078     -0.008993      1.425162
H       3.019477     -0.343986     -0.090236
H       1.315130      1.473559     -0.421119
H       0.502909      0.512340     -2.543658
H       0.849700     -1.134375     -1.951510
H      -2.768889      0.477869      2.174573
H      -2.938120      0.792085      0.420445
H      -2.583727     -0.850726      0.988347
