16
Extracted from Q-Chem output
C       2.190798     -0.528610      0.235157
C       1.121324      0.445091     -0.213750
C       0.286660      0.086347     -1.462873
N      -0.915596      0.035330     -0.572327
C      -2.669206      0.028854      0.783953
C      -0.234431      0.331457      0.484966
O      -0.743156      0.436905      1.614497
H       1.808162     -1.551576      0.231251
H       2.521063     -0.296515      1.248843
H       3.058683     -0.487083     -0.425804
H       1.488649      1.472867     -0.219483
H       0.223788      0.855365     -2.234226
H       0.528803     -0.876423     -1.917396
H      -2.882955      1.077659      0.919273
H      -3.058480     -0.425128     -0.110140
H      -2.684472     -0.579541      1.674021
