12
Extracted from Q-Chem output
N       2.488286     -1.146629      1.152623
C       1.679780     -0.689223      0.479919
C       0.658083     -0.095564     -0.398505
C      -0.694250     -0.834282     -0.340037
N      -1.531512      0.012077      0.540802
C      -0.940120      1.201302      0.689455
N       0.248349      1.238954      0.043390
H       1.068485     -0.067656     -1.408631
H      -1.150087     -0.888557     -1.329311
H      -0.621331     -1.840456      0.067405
H      -2.130559      1.124319      0.293532
H       0.917704      1.969239      0.207338
