18
Extracted from Q-Chem output
C       1.647471      0.278261     -1.276529
C       0.974039     -0.559553     -0.227307
C       1.258968     -0.405691      1.220349
N       0.018769      0.091679      0.647307
C      -1.196983     -0.587602      0.958689
C      -2.389275      0.654847     -0.407493
O      -1.856544      1.848300     -0.141151
H       0.992242      0.420698     -2.138913
H       2.564203     -0.200517     -1.625768
H       1.906172      1.259655     -0.876092
H       0.700899     -1.565681     -0.540897
H       1.957878      0.352095      1.556992
H       1.201684     -1.293525      1.842144
H      -1.253545     -1.624557      0.613136
H      -1.416747     -0.509704      2.025415
H      -1.837641      0.109931     -1.192575
H      -2.383491     -0.097561      0.584412
H      -0.888101      1.828925     -0.246340
