16
Extracted from Q-Chem output
C      -2.289589      0.056302     -0.242874
C      -1.222094      0.709031      0.597325
N       0.001017      0.017041      1.055375
C       0.094386      1.159801      0.124044
C       0.615613     -0.149761     -0.279746
C       2.090193     -0.433934     -0.212096
O       2.337474     -1.771279      0.164771
H      -2.974695      0.820569     -0.614624
H      -2.867524     -0.641959      0.365623
H      -1.898673     -0.483847     -1.102706
H      -1.632535      1.302385      1.411899
H       1.908755     -1.912428      1.012777
H       0.638128      2.064863      0.355875
H       0.079184     -0.741247     -1.016129
H       2.546270     -0.301116     -1.194764
H       2.565673      0.269021      0.483797
