14
Extracted from Q-Chem output
C       1.763811      0.095134     -0.187681
C       0.786764      0.117809      0.923505
C      -0.537808      0.563897      0.577539
O      -0.839813      1.340640     -0.569304
C      -1.044223     -0.960266      0.369830
O      -1.370153     -1.172045     -0.964584
H       2.567660     -0.622046     -0.028181
H       1.382563     -0.007020     -1.213381
H       2.224399      1.093592     -0.106421
H      -0.281506     -1.694918      0.644087
H      -1.097879      1.013830      1.393283
H      -0.124137      1.258355     -1.204383
H      -1.886271     -1.107320      1.050927
H      -1.784356     -0.362348     -1.287242
