12
Extracted from Q-Chem output
C       1.105806      0.188490     -1.035787
C       0.163636      0.639490      1.276123
O       0.876151      1.594705      1.388386
C       0.179873     -0.286477      0.067311
C      -1.255079     -0.488641     -0.385972
O      -2.099102     -0.994284      0.298716
H       1.119755     -0.521109     -1.864574
H       2.122082      0.304205     -0.662661
H       0.788025      1.160043     -1.417898
H       0.493491     -1.259013      0.468427
H      -0.567317      0.361638      2.058969
H      -1.491071     -0.117246     -1.404856
