16
Extracted from Q-Chem output
C      -1.694296     -1.133807     -0.002786
C      -0.573684     -0.246754     -0.491197
C      -0.701968      1.287588     -0.448652
C       0.666715      1.321859      0.176158
C       0.702272     -0.088370      0.440547
N       1.704177     -0.997414      0.575200
O       2.881573     -0.296440      0.364841
H      -2.535881     -1.104352     -0.698790
H      -2.057222     -0.806858      0.975002
H      -1.363414     -2.170047      0.085274
H      -0.215941     -0.562044     -1.470202
H      -0.748709      1.733114     -1.446294
H      -1.527140      1.698502      0.141770
H       0.229904     -0.098716      1.456525
H       1.460908      2.050934      0.099196
H       3.565368     -0.947862      0.541837
