14
Extracted from Q-Chem output
C       1.867320      0.797085     -0.467348
N       0.511869      0.840061     -0.579254
C      -0.106268     -0.203669     -0.124841
N       0.736514     -1.098808      0.605638
C      -1.525217     -0.257107      0.244084
O      -1.927321     -1.112625      1.024519
N      -2.308488      0.683062     -0.323398
H       2.400186     -0.059960     -0.886075
H       1.623261     -0.276335      0.747230
H       2.377717      1.735395     -0.652134
H       0.198561     -1.528273      1.362685
H       1.197897     -1.822017      0.063253
H      -1.867680      1.437396     -0.821280
H      -3.252951      0.775834      0.002413
