12
Extracted from Q-Chem output
C      -1.739266     -0.154646      0.236519
C      -0.396997     -0.586482     -0.239957
C       1.187504      0.980566     -0.010156
C       1.769595     -0.272864     -0.109136
O       2.619176     -0.917269     -0.581135
O       0.416114     -1.172721      0.538523
H      -1.716670      0.088933      1.297390
H      -2.431050     -0.990037      0.085806
H      -2.107248      0.689685     -0.345357
H      -0.265860     -0.674868     -1.322426
H       1.757638      1.803221     -0.429869
H       0.588917      1.197155      0.858636
