16
smiles: [C:1]1([H:7])([H:8])[C:2](=[O:3])[C:6]([H:15])([H:16])[C:5]([H:13])([H:14])[C:4]1([H:11])[H:12].[H:9][H:10]
C        0.53156600       0.02288800      -0.72482400
C        0.49173200      -0.20727200       0.77981700
O        1.42855600      -0.50455400       1.46922100
C       -0.93488800       0.07615600      -1.15024300
C       -1.65661400       0.65012100       0.07922200
C       -0.93648600       0.00590800       1.26271700
H        1.02629700       0.98686700      -0.88474400
H        1.13757700      -0.73678000      -1.21728600
H        4.17638100      -0.94996800      -0.34665100
H        3.63358100      -0.82227500       0.14672700
H       -1.10006400       0.66819400      -2.05029400
H       -1.30030200      -0.93456300      -1.35340500
H       -2.72848300       0.45248100       0.06851200
H       -1.52597700       1.73566100       0.10958200
H       -1.34756300      -0.98448500       1.48555900
H       -0.95003400       0.57686200       2.19050900
