16
Extracted from Q-Chem output
C       1.172364      0.288549     -0.657816
C       0.411255     -0.498156      0.273229
O       0.976837     -1.616381      0.563827
C      -0.880404     -0.310188     -0.922671
C      -1.517436      0.637361      0.089860
C      -0.561947      0.216504      1.217185
H       1.043677      1.361847     -0.774465
H       1.601804     -0.241104     -1.496992
H       2.605178     -0.179599      0.226370
H       2.254617     -0.961600      0.511957
H      -0.762201      0.024356     -1.951642
H      -1.277035     -1.322615     -0.913549
H      -2.576107      0.464013      0.279653
H      -1.391198      1.680474     -0.203214
H      -1.004885     -0.533571      1.871310
H      -0.123662      1.006228      1.829517
