17
smiles: [C:1]([C:2]([O+:3]=[C:4]=[C:6]([O-:7])[H:17])([H:11])[H:12])([H:8])([H:9])[H:10].[C:5]([H:13])([H:14])([H:15])[H:16]
C        2.56383900      -0.90338700      -0.25720000
C        1.28999900      -0.35284800       0.33082500
O        0.36092400      -0.04432500      -0.74457200
C       -0.65179900      -0.81414400      -0.87599000
C       -1.81362300       1.29584900       1.67253200
C       -1.51391400      -0.39065600      -2.00036900
O       -2.42868200       0.38390400      -1.87488600
H        3.00532300      -0.19915100      -0.96320400
H        3.28533100      -1.08829400       0.53978700
H        2.37308800      -1.84614800      -0.77220900
H        0.78850800      -1.06087600       0.99059900
H        1.44987600       0.59422600       0.84601500
H       -1.58873800       0.26051300       1.92451600
H       -2.50050200       1.70776400       2.41034300
H       -0.89247800       1.87652300       1.66897700
H       -2.27340300       1.33700300       0.68627000
H       -1.33742900      -0.95185900      -2.94612600
