17
Extracted from Q-Chem output
C       2.626872     -0.627097     -0.301512
C       1.271061     -0.752108      0.347298
O       0.304998     -0.114702     -0.500567
C      -0.961844     -0.347785     -0.189018
C      -1.527360      1.373965      0.980362
C      -1.957905     -0.263541     -1.224781
O      -3.085793      0.181837     -1.162826
H       2.889828      0.420607     -0.451558
H       3.386445     -1.086496      0.332563
H       2.637298     -1.127862     -1.270194
H       0.971946     -1.793432      0.486855
H       1.251002     -0.255578      1.323725
H      -1.367325      0.132904      0.931978
H      -2.299909      1.718756      0.304122
H      -1.876862      1.356720      2.013640
H      -0.574874      1.882697      0.878282
H      -1.609627     -0.816681     -2.123109
