18
Extracted from Q-Chem output
C      -1.236793     -1.433969      0.330329
C      -0.887478     -0.242631     -0.506012
C      -1.656162      0.922359     -0.447517
N       0.938506      0.127975      0.276645
C       2.041236     -0.655159     -0.217849
C       1.129196      1.373618      0.546430
O       0.175125      2.153406      0.895017
H      -1.519911     -1.126271      1.337117
H      -2.096950     -1.934150     -0.124363
H      -0.418411     -2.149372      0.397928
H      -0.384837     -0.468965     -1.442060
H      -0.763823      1.684424      0.369861
H      -1.737696      1.525701     -1.344780
H      -2.530908      0.909715      0.196960
H       2.205486     -1.527936      0.417842
H       1.833812     -1.017057     -1.230040
H       2.971538     -0.076032     -0.256099
H       2.132788      1.820282      0.453835
