11
Extracted from Q-Chem output
N       1.908335      0.335982      0.548042
C       1.239644     -0.237252     -0.270426
O       0.597735     -1.357320     -0.545146
C      -0.723118     -0.925851     -0.033694
C      -0.683539      0.651051     -0.093814
O      -0.321901      1.371986      0.903311
H       1.137485      1.161045      0.832035
H       0.349027      0.616444     -0.883662
H      -0.802293     -1.265742      0.998929
H      -1.474009     -1.376860     -0.678183
H      -1.437608      1.070714     -0.777603
