16
Extracted from Q-Chem output
C       1.873472     -0.280518      0.088195
C       0.625465      0.308407     -0.571357
C      -0.070658      1.290510      0.338894
C      -1.209353      0.814496      0.821370
C      -1.509331     -0.566299      0.302102
C      -0.480703     -0.739547     -0.832950
H       1.609628     -0.808180      1.008471
H       2.591689      0.500683      0.347054
H       2.373134     -0.987031     -0.578420
H       0.362489      2.248962      0.601782
H       0.928700      0.788859     -1.506756
H      -1.845082      1.328682      1.532305
H      -1.378941     -1.309697      1.096197
H      -2.537626     -0.670158     -0.051820
H      -0.961599     -0.530425     -1.790510
H      -0.080210     -1.753475     -0.888225
