11
Extracted from Q-Chem output
O      -1.446999      0.939194     -0.554286
C      -2.069929     -0.192598     -0.500554
C      -0.303223     -0.339307     -0.445021
C       0.741237      0.536050      0.273458
C       1.963755     -0.241424      0.466084
N       2.910669     -0.873331      0.603730
H      -2.617691     -0.283005      0.479589
H      -0.035694     -0.616042     -1.454461
H      -0.484255     -1.214158      0.198149
H       0.370306      0.860121      1.246249
H       0.971827      1.424501     -0.312937
