17
Extracted from Q-Chem output
C       1.823338      0.294198      0.052589
C       0.385748     -0.176648      0.001022
C       0.180347     -1.480195      0.752368
C      -1.034575     -0.030889     -1.890207
C      -1.705834      0.707195     -0.757319
C      -0.650109      0.890378      0.337491
O       0.087133     -0.475155     -1.434314
H       1.961836      1.175182     -0.575353
H       2.500597     -0.487893     -0.293002
H       2.093340      0.554255      1.077984
H       0.454875     -1.356870      1.801548
H       0.799812     -2.268426      0.322972
H      -0.862266     -1.800020      0.704841
H      -2.542345      0.067550     -0.450383
H      -2.153841      1.632389     -1.119975
H      -0.204822      1.885000      0.279524
H      -1.047181      0.759921      1.343759
