17
Extracted from Q-Chem output
C       1.971206      0.335980      0.149812
C       0.520412      0.019724     -0.083338
C      -0.027201     -1.308441      0.463330
C      -1.085989     -0.748732     -1.147269
C      -1.729532      0.414501     -0.395696
C      -0.514857      1.087796      0.271642
O       0.207520     -0.272284     -1.457304
H       2.247734      1.254319     -0.370462
H       2.606508     -0.472918     -0.212432
H       2.155295      0.475565      1.217498
H      -0.462951     -1.332544      1.461002
H       0.643542     -2.145790      0.268076
H      -0.924298     -1.754922     -0.449191
H      -2.499154      0.081341      0.300444
H      -2.211712      1.048346     -1.141013
H      -0.245379      2.042544     -0.180943
H      -0.623456      1.231447      1.347357
