10
Extracted from Q-Chem output
N      -1.098994     -0.618533      0.362996
C      -0.106586      0.464041      0.113265
C       1.219298      0.023040      0.090800
C       2.344985     -0.414072      0.112792
C      -0.648936      1.548177     -0.576142
N      -1.173809      2.431935     -1.112120
H      -1.215186     -1.269657     -0.420730
H      -0.808238     -1.159979      1.175127
H      -2.007711     -0.206526      0.568110
H       3.346299     -0.771756      0.139109
