10
Extracted from Q-Chem output
N      -1.184072     -0.755126      0.343703
C      -0.185782      0.450747      0.130869
C       1.168719      0.060460      0.205657
C       2.307480     -0.307721      0.317410
C      -0.667596      1.361141     -0.835337
N      -1.132160      2.099099     -1.590129
H      -1.975518     -0.719706     -0.283185
H      -0.699402     -1.641317      0.368626
H      -1.006200      0.091527      1.136495
H       3.322160     -0.612114      0.417800
