17
Extracted from Q-Chem output
C       0.090423     -1.687549      1.933227
C      -0.714673      0.983373     -0.697964
C       0.338148     -0.088552     -0.696577
C       1.166530     -0.075179      0.584050
O       0.408413     -0.333808      1.744381
C      -1.126982      1.662100     -1.920831
O      -0.264939      2.299506     -0.992564
H      -0.585120     -2.073428      1.159711
H       0.994907     -2.310059      1.946574
H      -0.408886     -1.769806      2.897841
H       1.007557      0.065527     -1.547395
H      -0.136654     -1.064921     -0.833911
H       1.600582      0.917097      0.721875
H       1.991591     -0.796556      0.503994
H      -1.423579      0.940317      0.125975
H      -2.123323      2.088218     -1.996831
H      -0.666028      1.381811     -2.864831
