17
Extracted from Q-Chem output
C      -0.797369     -1.119352      1.258365
C      -0.391777      0.707506     -0.378379
C       0.871175      0.032533     -0.835169
C       1.722602     -0.195194      0.446030
O       0.862708     -0.082631      1.576475
C      -1.505417      1.032259     -1.252104
O      -0.623704      2.052956     -0.793459
H      -1.089608     -1.412968      0.261573
H      -0.292214     -1.885124      1.832300
H      -1.542660     -0.554488      1.798524
H       1.429347      0.613286     -1.572933
H       0.625429     -0.933311     -1.284389
H       2.485766      0.578255      0.549209
H       2.212190     -1.169085      0.470959
H       0.144419      0.560705      1.168580
H      -2.518902      1.076867     -0.856609
H      -1.444016      0.835877     -2.322249
