11
Extracted from Q-Chem output
C      -0.980645      1.579736     -0.054075
N       0.103421      0.626156     -0.122400
C      -0.072144     -0.677157      0.132432
O      -1.056602     -1.262515      0.439216
C       1.288226     -2.589649      0.134460
O       1.220296     -1.298556     -0.034228
H      -1.883549      1.045075      0.231669
H      -0.774837      2.348411      0.692264
H      -1.142305      2.054114     -1.023242
H       1.029493      0.926316     -0.369099
H       2.370548     -2.776165     -0.051391
