11
Extracted from Q-Chem output
C      -0.921039      1.408630     -0.141156
N       0.160639      0.559499      0.327105
C      -0.082197     -0.791775      0.347897
O      -1.124688     -1.343403      0.514420
C       1.231671     -1.694679     -0.405739
O       1.243795     -1.505012      0.848802
H      -1.831113      1.148436      0.394349
H      -0.669322      2.444611      0.081654
H      -1.106118      1.305889     -1.215449
H       1.080148      0.823735      0.019014
H       2.030389     -2.371545     -0.772986
