10
Extracted from Q-Chem output
N       1.950805      0.041591     -0.067123
C       0.625957     -0.283177      0.019771
N      -0.200207      0.733678     -0.354397
C      -1.496782      0.816294      0.173592
C      -1.859724     -0.396731      0.067572
O       0.265294     -1.400797      0.395496
H       2.207126      0.897889     -0.520385
H       2.599915     -0.721982     -0.089780
H      -1.955919      1.747332      0.477202
H      -2.135074     -1.414118     -0.098543
