11
smiles: [C:1]([N:2]1[N:3]=[C:4]1[H:11])([H:8])([H:9])[H:10].[O:5]=[C:6]=[O:7]
C       -1.35754400      -0.46794600      -0.04474200
N        0.05504200      -0.21092100      -0.31541800
N        1.00482100      -1.14086900       0.59193700
C        0.80172000      -1.35047300      -0.60705000
O        2.20121000       2.01548200       0.04173200
C        1.20629900       2.24255100       0.58528800
O        0.21152500       2.46999500       1.12899100
H       -1.54741200      -1.48169500       0.32224500
H       -1.70949700       0.25178400       0.69386800
H       -1.91431300      -0.31192500      -0.97290300
H        1.04815000      -2.01598500      -1.42394900
