11
Extracted from Q-Chem output
N       2.403121     -0.276292      0.504071
C       2.012085      0.434114     -0.359723
C       0.724078     -0.743071     -0.130535
C      -0.397649      0.015290      0.510195
C      -1.295414      0.835721     -0.287129
O      -1.680945     -0.460906      0.155170
H       0.906335     -1.688906      0.374573
H       0.566903     -0.939146     -1.187384
H      -0.258395      0.243900      1.563583
H      -1.823782      1.660005      0.180533
H      -1.117410      0.929998     -1.354468
