13
smiles: [C:1](/[N:2]=[C:3]1\[O:4][C:5]1([H:11])[H:12])([H:7])([H:8])[H:9].[O:6]([H:10])[H:13]
C        1.99886500       0.30306800      -0.09591400
N        0.56696400       0.14589900      -0.29265800
C       -0.13112400      -0.10268000       0.69982800
O       -0.03696100      -0.30150700       2.02913900
C       -1.36322800      -0.37225400       1.36876900
O       -1.75037700      -0.20420900      -1.98266800
H        2.29340300       1.29912900      -0.42977000
H        2.31907400       0.16808400       0.94154400
H        2.52259600      -0.41887000      -0.72410700
H       -0.86800600      -0.04370900      -1.64565300
H       -2.03278800       0.43871500       1.63369400
H       -1.79365600      -1.36745000       1.34689800
H       -1.91794500       0.50444000      -2.60532200
