11
Extracted from Q-Chem output
O       2.638374      1.164486      0.580184
C       1.480633      0.901031      0.572506
N       0.134943     -1.646908     -0.070892
C      -0.823078     -0.869697     -0.318562
C      -0.620840      0.615783     -0.438067
O       0.730442      1.002412     -0.540100
H      -0.170589     -2.614589     -0.010863
H      -1.862984     -1.194797     -0.446038
H       0.908986      0.583288      1.461030
H      -1.112786      1.108209      0.411634
H      -1.109418      0.980766     -1.342670
