12
Extracted from Q-Chem output
O      -0.380260      1.025131     -1.673419
C       0.167187      1.391883     -0.502843
C      -0.274081      0.195547      0.909077
C      -0.443975     -1.145214      0.232716
O       0.790839     -0.972606     -0.495913
C       0.996697      0.309937      0.139920
H      -0.029817      0.150047     -1.923440
H      -0.739692      1.390972      0.390410
H      -0.427247      0.434118      1.954151
H      -0.373006     -2.000603      0.907126
H      -1.308967     -1.261967     -0.427631
H       2.007779      0.487844      0.486414
