12
Extracted from Q-Chem output
N       0.660744     -1.298871     -0.666537
C      -0.134744     -0.097094     -1.086961
C      -0.992030     -1.028290     -0.268612
N      -0.395969      1.750514      0.585953
C       0.413383      0.659247      0.123413
C       0.175463     -0.770869      0.650261
H       0.270286     -2.206906     -0.951452
H      -0.233495      0.189826     -2.128107
H      -1.354212      1.470318      0.747611
H      -0.029074      2.153161      1.435710
H       1.458938      0.977723      0.058798
H       0.429786     -1.258633      1.585779
