12
Extracted from Q-Chem output
N       0.439478     -1.397564     -0.658944
C      -0.017150     -0.039312     -1.061115
C      -0.925141      0.201886      0.174689
N      -0.283904      1.511972      0.462828
C       0.843027      0.645722      0.021156
C       0.287239     -0.670408      0.629043
H      -0.308476     -2.078205     -0.780051
H      -0.175583      0.275962     -2.090222
H      -1.992802      0.011152      0.285959
H      -0.237090      1.677571      1.466860
H       1.877574      0.973774     -0.054389
H       0.492828     -1.112550      1.604186
