12
Extracted from Q-Chem output
N       0.590396     -1.393442     -0.678529
C      -0.054385     -0.105236     -1.080145
C      -1.068967     -0.188653      0.080706
N      -0.392325      1.556379      0.511747
C       0.674353      0.642812      0.031009
C       0.282610     -0.719676      0.615177
H      -0.054399     -2.169663     -0.831497
H      -0.222900      0.191520     -2.111488
H      -1.546549      0.862057      0.407173
H      -0.336020      1.606564      1.529998
H       1.699909      1.022952     -0.041932
H       0.509697     -1.146807      1.589785
