8
Extracted from Q-Chem output
C       1.448506     -0.172824     -0.141479
N       0.589312      1.313545      0.258253
N      -0.557018      1.308069      0.346554
C      -1.453115     -0.185823      0.077877
N      -0.961187     -1.239864     -0.201060
N       0.930519     -1.232756     -0.338825
H       2.478400      0.139372     -0.149403
H      -2.475328      0.116611      0.226438
