10
Extracted from Q-Chem output
C       2.353528     -0.790846     -0.305606
C       1.227727     -0.394306     -0.195130
C      -0.091378      0.128173     -0.066891
C      -0.343879      1.584680     -0.082996
O      -1.425243      2.091991      0.058359
N      -2.108269     -1.379926      0.098417
C      -1.139257     -0.679408      0.082284
H       3.350511     -1.149649     -0.406034
H       0.570510      2.187028     -0.239281
H      -2.524675     -1.707296      0.961777
