11
Extracted from Q-Chem output
N       2.123185     -0.402646      0.028483
C       0.824898     -0.133078      0.082918
C      -0.128870     -1.198544      0.137580
C      -1.380292     -0.662630      0.191915
C      -1.616535      0.751762      0.190265
N      -0.710569      1.659920      0.136146
O       0.586583      1.166979      0.077813
H       2.821495      0.318383     -0.013311
H       2.371725     -1.376470      0.025425
H      -2.263288     -1.295524      0.237187
H      -2.617511      1.169542      0.235070
