15
Extracted from Q-Chem output
C      -1.022395      0.788179     -1.229618
C      -0.864656     -0.076533     -0.122311
O       0.258778     -1.243227     -1.092234
C       0.027300      0.218427      1.051464
O      -0.008727     -0.798062      1.998750
C       1.458890      0.491401      0.620153
O       2.376272     -0.034249      1.185108
H      -0.249181     -0.290014     -1.709388
H      -1.986863      0.794198     -1.722659
H      -0.491339      1.733200     -1.235995
H      -1.646206     -0.789077      0.117804
H      -0.027154     -2.148192     -1.263065
H      -0.351701      1.158524      1.488344
H       0.911323     -1.053092      2.158131
H       1.611057      1.200362     -0.209718
