11
Extracted from Q-Chem output
N       1.788577     -0.028695      0.211220
C       0.759668      0.745068      0.001109
C      -0.267442      1.367369     -0.424121
C      -1.079399      0.307561      0.197693
C      -1.022341     -1.053181     -0.211297
O      -0.166544     -1.580464     -0.926188
H       1.636820     -0.977884     -0.143149
H       2.358170      0.098645      1.030561
H      -0.502769      2.280524     -0.951608
H      -1.731084      0.555682      1.029507
H      -1.810346     -1.687953      0.238864
