9
Extracted from Q-Chem output
O       2.222336     -0.408407      0.620737
C       0.967973     -0.387246      0.465820
N       0.529512      0.803753      0.125022
C      -0.845446      0.679275     -0.008589
C      -1.152371     -0.599323      0.264446
O       0.019354     -1.298310      0.573460
H       1.833003      0.867775      0.265247
H      -1.500595      1.488388     -0.281436
H      -2.067155     -1.162660      0.290572
