14
smiles: [C:3](=[N:4][H:12])([H:10])[H:11].[O:1](/[C:2](=[C:5](/[C:6](=[O:7])[H:14])[H:13])[H:9])[H:8]
O       -0.95868300      -2.52491900      -0.75795000
C       -0.10585000      -1.53818600      -0.45480900
C       -1.58528300       2.71601500       0.52057100
N       -1.15824000       1.57120500       0.21090800
C        1.21175500      -1.72869000      -0.36354900
C        2.08224100      -0.60164900      -0.02611300
O        1.70940200       0.52952000       0.18555400
H       -1.85821300      -2.19361400      -0.77453800
H       -0.52514600      -0.55034800      -0.28027800
H       -0.95024700       3.55803700       0.81413300
H       -2.65983700       2.90117900       0.49981700
H       -0.14148900       1.53196300       0.27069100
H        1.64747000      -2.70539000      -0.53360400
H        3.16148400      -0.84613100       0.03013000
