14
Extracted from Q-Chem output
C       1.640181     -0.367712      0.614710
C       0.174761      0.004073      0.741964
O      -0.040442      1.374175      0.655489
C      -0.693044     -0.551600     -0.400889
C      -1.782814      0.375312     -0.657881
O      -0.489027      0.358813     -1.559854
H       2.053217     -0.010543     -0.331946
H       2.205769      0.097797      1.421164
H       1.779631     -1.450401      0.669746
H      -0.231592     -0.420130      1.674571
H       0.006043      1.105403     -1.103887
H      -0.652810     -1.589995     -0.708565
H      -1.183072      1.293430      0.207343
H      -2.605359      0.037791     -1.279225
