12
Extracted from Q-Chem output
C      -1.498125      0.118184      0.213351
C      -0.188283     -0.398761     -0.359472
C       0.876421      0.682019     -0.339048
C       2.145559      0.399134     -0.173649
O       3.264074      0.159689     -0.005923
O       0.254457     -1.566040      0.306001
H      -1.364836      0.430557      1.252648
H      -2.253585     -0.667099      0.174791
H      -1.860544      0.978303     -0.352912
H      -0.357287     -0.727471     -1.388727
H       0.630239      1.722422     -0.504209
H       0.359799     -1.357745      1.238694
