12
Extracted from Q-Chem output
C      -1.606586      0.026025      0.205074
C      -0.240631     -0.261601     -0.355791
C       0.870117      0.755130     -0.124837
C       1.896141     -0.207901     -0.138344
O       2.974665     -0.613609     -0.212586
O       0.515418     -1.217883      0.433684
H      -1.534199      0.371412      1.238360
H      -2.216303     -0.878367      0.180212
H      -2.110006      0.795424     -0.383765
H      -0.302120     -0.624434     -1.385717
H       1.003750      1.780058     -0.451140
H       0.763045     -0.072604      1.022113
