11
Extracted from Q-Chem output
C       2.109007     -0.350018      0.224504
C       1.878526      0.129673     -0.904759
C       0.426543      0.110843     -0.361238
C      -0.551494     -0.866596     -0.323721
C      -1.709094     -0.193267      0.098612
N      -1.478093      1.090818      0.312008
N      -0.182295      1.252959      0.048703
H       2.364654     -0.776241      1.173883
H      -0.426613     -1.904626     -0.580694
H      -2.698969     -0.592302      0.258010
H       0.226739      2.169873      0.076216
