12
Extracted from Q-Chem output
C       1.524322      0.680277     -0.071341
O       1.563455     -0.199816      1.042676
C       0.792720     -0.580871     -0.081137
C      -0.685693     -0.636579      0.152745
C      -1.466915      0.573943      0.462056
O      -1.497091     -0.377857     -1.007167
H       0.978101      1.603262      0.089999
H       2.451249      0.751278     -0.632369
H       1.199475     -1.416762     -0.647724
H      -1.015533     -1.574764      0.594835
H      -1.461688      0.717195     -0.940893
H      -2.404590      0.301896      0.955576
