10
Extracted from Q-Chem output
C       1.676319      0.478886      0.468514
C       0.501602     -0.059597      0.362400
C      -0.757852     -0.533181      0.276605
C      -1.608218      0.350337     -0.699634
N      -1.181183     -0.872760     -1.125840
H       2.582464     -0.102929      0.321779
H      -1.245048     -1.053011      1.087496
H      -1.170037      1.230130     -1.190433
H       1.802082      1.530735      0.712945
H      -0.414233     -0.906877     -1.807260
