12
smiles: [C:4](=[O:5])([H:10])[H:11].[O:1]([C:2]1([H:8])[C:3]([H:9])=[C:6]1[H:12])[H:7]
O       -0.18095000       0.52757100      -1.07489500
C       -0.03888200       1.54526200      -0.11720600
C        0.21129200       1.24952500       1.30872600
C       -0.74967900      -2.50948800      -0.58837700
O        0.38620200      -2.21063800      -0.36418200
C        1.21397700       1.73694800       0.64226800
H        0.36064100      -0.21830300      -0.80582400
H       -0.65556300       2.38217200      -0.43169900
H       -0.17054400       0.85594600       2.23642100
H       -1.10722500      -3.55419900      -0.50837000
H       -1.50519900      -1.75753300      -0.88692400
H        2.25028000       2.03253000       0.62843900
