18
smiles: [C:1]([C:2]([C:3]([O:4][C:5](=[C:6]([H:16])[H:18])[H:14])([H:12])[H:13])([H:10])[H:11])([H:7])([H:8])[H:9].[H:15][H:17]
C        2.79144500      -0.26246200       0.29659600
C        1.40131700      -0.74116600      -0.09924100
C        0.43578100       0.40969500      -0.27542300
O       -0.82969500      -0.11234800      -0.64569700
C       -1.80535800       0.80065300      -0.84355400
C       -3.02494100       0.46995100      -1.23902700
H        3.47310300      -1.10394800       0.42414400
H        2.76960000       0.28971800       1.23918700
H        3.21780100       0.39595400      -0.46404700
H        1.00148300      -1.41894800       0.65922900
H        1.44384200      -1.30584200      -1.03395500
H        0.34366800       0.97850100       0.65913000
H        0.79456500       1.09590700      -1.05351900
H       -1.52464200       1.83489200      -0.65176400
H       -1.78323900      -1.11528000       2.31338300
H       -3.76946900       1.23960100      -1.37898800
H       -1.66711800      -0.98116500       1.59018000
H       -3.29483900      -0.56079700      -1.42826800
