18
Extracted from Q-Chem output
C       2.983135     -0.322755      0.080973
C       1.580332     -0.793477     -0.277674
C       0.528590      0.249922      0.035050
O      -0.736559     -0.246281     -0.322000
C      -1.782385      0.651775     -0.042708
C      -3.089662      0.029672     -0.475681
H       3.725494     -1.087848     -0.149788
H       3.066421     -0.093227      1.146200
H       3.254775      0.578558     -0.474090
H       1.334442     -1.708178      0.267983
H       1.521358     -1.037853     -1.341563
H       0.548009      0.499351      1.108007
H       0.738802      1.180629     -0.515725
H      -1.613417      1.601526     -0.572340
H      -1.801375      0.880809      1.033550
H      -3.920088      0.705913     -0.265527
H      -3.261246     -0.906985      0.056406
H      -3.076627     -0.181552     -1.545786
