14
Extracted from Q-Chem output
C      -1.728696      0.051207      0.323798
C      -0.443369      0.152882     -0.486207
C       0.583593      0.975098      0.098644
C       1.685039      1.227145      0.580738
N       1.509653     -1.313629     -0.210837
C       0.281440     -1.303513     -0.625344
O      -0.495354     -2.128616     -1.109413
H      -2.299548      0.981153      0.316532
H      -1.514038     -0.229972      1.355874
H      -2.324112     -0.740216     -0.127826
H      -0.642191      0.485101     -1.507113
H       0.657340      2.155544      0.464045
H       2.614676      1.549202      1.001763
H       1.898382     -2.242472     -0.329816
