16
smiles: [C:1]([C:2]1([C:3]([H:10])([H:11])[H:12])[O:4][C:5]1([H:14])[H:15])([H:7])([H:8])[H:9].[O:6]([H:13])[H:16]
C       -1.75642300      -1.01892600      -0.30006300
C       -0.46747900      -0.24228200      -0.24211900
C       -0.60455500       1.25035900      -0.09555400
O        0.54475000      -0.83088500       0.56995200
C        0.74501400      -0.80253400      -0.83528700
O        2.52228900       1.05854500       1.25446400
H       -1.56035200      -2.08785900      -0.38200600
H       -2.34278600      -0.84603900       0.60518000
H       -2.35764600      -0.70660600      -1.15673500
H       -1.13004500       1.67488600      -0.95370200
H       -1.17451200       1.49304400       0.80410100
H        0.37503000       1.72186400      -0.01848900
H        1.87425700       0.35315400       1.23911000
H        0.70709200      -1.77006700      -1.32948800
H        1.53405700      -0.13754600      -1.17732400
H        3.05958800       0.89412900       2.03046800
