16
Extracted from Q-Chem output
C      -1.476305     -1.040883     -0.330392
C      -0.364215     -0.074080      0.062295
C      -0.810238      1.378507     -0.058561
O       0.169074     -0.385324      1.307312
C       0.913257     -0.357796     -0.605413
O       2.397832      0.360522      0.752276
H      -1.129401     -2.071599     -0.247916
H      -2.298927     -0.906354      0.375051
H      -1.848120     -0.861891     -1.342436
H      -1.142355      1.614388     -1.073348
H      -1.637557      1.554791      0.629503
H       0.004742      2.052168      0.210919
H       1.539160      0.147581      1.289931
H       1.207545     -1.397912     -0.660935
H       1.453583      0.345752     -1.223602
H       3.010047     -0.358711      0.928958
