18
smiles: [C:1](=[C:2]([H:10])[H:11])([H:7])[H:8].[C:3]1([C:4]([H:12])([H:13])[H:14])=[C:6]([H:17])[C:5]1([H:15])[H:16].[H:9][H:18]
C        2.57805000      -1.66814900       0.57443300
C        1.71446200      -0.69067400       0.78930900
C       -1.31829600       1.16287900      -0.10821900
C       -0.95254200       2.31438200       0.73383400
C       -1.87137400      -0.23168600      -0.07181600
C       -1.43061400       0.58566900      -1.25187900
H        3.03851700      -2.20989400       1.39275700
H        2.86098200      -1.96688900      -0.42855700
H        0.22778500      -1.96339200      -1.79187900
H        1.43144300      -0.39213500       1.79233200
H        1.25359100      -0.14910100      -0.02884900
H       -0.19726600       2.02320500       1.46726000
H       -1.82346300       2.66528800       1.29219600
H       -0.56317600       3.13860700       0.13605900
H       -1.24502700      -1.05121900       0.28236200
H       -2.93523300      -0.38560600       0.11316900
H       -1.31910800       0.60373900      -2.32151300
H        0.38168000      -2.10940500      -2.50565300
