11
Extracted from Q-Chem output
C      -0.062639      0.957521      0.417944
C       1.016520     -0.035154      0.824717
C       0.521806      0.448856     -0.866162
N      -0.415939     -0.709995     -0.901754
C      -1.119483     -0.161721      0.288390
C      -0.028382     -1.139967      0.459067
H      -0.120840      1.990252      0.732314
H       1.612883      0.021955     -0.473044
H       0.786411      1.049093     -1.732971
H      -2.189483     -0.222336      0.415831
H      -0.033708     -2.188413      0.721231
