12
Extracted from Q-Chem output
O       0.438279      1.000906      1.768756
C       0.620038      0.642197      0.608170
C       1.935663      0.191378      0.158062
C       3.004145     -0.214862     -0.200383
C      -0.389244      0.660396     -0.406607
C      -1.188995     -0.528126     -0.705383
N      -1.739753      0.510313      0.204050
H       3.959147     -0.566475     -0.513157
H      -2.480061      1.114562     -0.118376
H      -1.027923     -1.477026     -0.196979
H      -1.711743     -0.617596     -1.653224
H      -1.744285      0.318361      1.202937
