7
Extracted from Q-Chem output
C      -0.646808     -0.283786      0.265479
C       0.628802      0.218137      0.095940
O       1.471518      0.858679      0.650564
H      -1.148301     -0.229628      1.225491
H      -0.089625      0.523409     -1.044352
H      -1.012560     -0.973645     -0.482227
H       0.809865      0.066582     -1.203059
