14
Extracted from Q-Chem output
C       2.375070     -0.638451      0.411482
C       1.236941     -0.625485     -0.567787
C       0.042484     -0.184690     -0.312498
C      -1.164455      0.293975     -0.124559
N      -2.301070     -0.468350      0.224620
C      -1.440722      1.732056     -0.400828
O      -0.612261      2.571333     -0.621494
H       3.197704     -0.023206      0.040711
H       2.758602     -1.652771      0.542805
H       2.063842     -0.252232      1.380799
H       1.439227     -1.004949     -1.568177
H      -2.079284     -1.433415      0.413091
H      -2.816898     -0.076332      0.999590
H      -2.522714      1.982968     -0.385079
