14
Extracted from Q-Chem output
C       2.359347     -0.145941      0.216444
C       0.905285     -0.015693     -0.105920
C      -0.148877     -0.951354      0.096651
C      -1.310945     -0.092602     -0.035221
N      -2.612581     -0.587293     -0.043675
C      -0.899284      1.191405     -0.169019
O       0.450513      1.289185     -0.213688
H       2.967476      0.483060     -0.433305
H       2.660512     -1.185743      0.106777
H       2.530672      0.153825      1.250800
H       0.629307     -0.655862     -1.093470
H      -2.662254     -1.512931      0.350610
H      -3.312658      0.023800      0.343193
H      -1.435761      2.120605     -0.290714
