13
Extracted from Q-Chem output
C       0.836203      0.767558      1.025326
O       1.036944     -0.659019      1.029275
C      -0.049116     -1.064911      0.253103
C      -0.862154     -0.639702     -2.022188
O      -1.150983     -0.299610      0.700689
C      -0.397338      0.793001      0.123557
C       0.069486     -0.134710     -1.049996
H       1.711975      1.270030      0.612945
H       0.625991      1.118533      2.035581
H      -0.165506     -2.143255      0.234572
H      -1.867298     -0.572243     -1.569853
H      -0.953584      1.713134     -0.028927
H       1.095443      0.000680     -1.393675
