12
Extracted from Q-Chem output
C      -1.065848      0.485988     -0.296522
C       0.124789      0.841012      0.628401
C       1.308276      0.270052     -0.161663
C       0.846253     -0.931155     -0.485579
O      -0.254214     -0.298536      1.451289
C      -0.544998     -0.899685      0.158194
H      -2.030013      0.738007      0.144784
H      -1.006995      0.747648     -1.351695
H       0.221094      1.781295      1.165069
H       2.252686      0.747350     -0.373254
H       1.296972     -1.738327     -1.042240
H      -1.153920     -1.799372      0.196913
