12
Extracted from Q-Chem output
C      -1.096558      0.491476     -0.191319
C       0.206887      1.057343      0.325776
C       1.298779      0.366646     -0.227038
C       0.824556     -0.903932     -0.430739
O      -0.223145     -0.783570      1.425546
C      -0.587898     -0.904731      0.073563
H      -1.951345      0.713213      0.442529
H      -1.292521      0.791938     -1.226864
H       0.295461      1.991170      0.870299
H       2.330599      0.679535     -0.183682
H       1.401570     -1.789750     -0.660638
H      -1.212301     -1.765061     -0.183736
