14
Extracted from Q-Chem output
O       1.038014      0.103804      2.323151
C       2.165215     -0.402720     -0.979524
C       1.392760     -0.138965      0.032053
C       0.597941      0.161610      1.024652
C      -0.810368      0.597473      0.842215
C      -1.597041      0.185602     -0.328771
N      -1.890866     -0.392658      0.980252
H       0.274755      0.117000      2.905448
H       2.792722      0.362485     -1.425774
H       2.217341     -1.398027     -1.409850
H      -1.041958      1.550781      1.310806
H      -1.101585     -0.432703     -1.068187
H      -2.356232      0.853631     -0.715994
H      -1.487232     -1.322100      1.032522
