15
Extracted from Q-Chem output
O       2.076648      0.168321     -0.957546
C       1.698652     -0.829852     -0.319728
C      -0.155801     -0.276414      0.886109
C      -0.543864      0.963010      0.378094
C      -1.463189      0.369101     -0.689127
C      -1.100551     -0.972691     -0.011470
O      -1.507039     -2.091657     -0.134513
H       1.224599      1.268830     -0.747134
H       2.172651     -1.082811      0.635488
H       1.147945     -1.633152     -0.821530
H       0.263477     -0.546882      1.845045
H      -0.661582      1.900769      0.906275
H       0.543021      1.660239     -0.425649
H      -1.138788      0.489506     -1.723899
H      -2.520109      0.623180     -0.599460
