13
Extracted from Q-Chem output
C      -1.860959     -0.182280     -0.279626
C      -0.401275     -0.126228     -0.000254
O       0.345896     -1.277864     -0.333353
C       1.550641     -0.822648      0.114406
O       1.644791     -1.117108      1.346163
C       1.750629      0.524161     -0.336319
C       0.466067      0.978706     -0.310746
H      -2.311818     -1.052791      0.194900
H      -2.336096      0.717501      0.113562
H      -2.059036     -0.231398     -1.353756
H       0.451797     -0.539228      1.464071
H       2.669708      1.079396     -0.264355
H       0.137857      2.007758     -0.347364
