13
Extracted from Q-Chem output
C      -1.370675     -0.579371     -0.046198
C      -0.973431      0.848049      0.401278
C       0.209044      0.611691     -0.482514
N       1.369530      1.231337     -0.880277
C       1.956470      0.183604     -0.263715
C       1.056531     -0.874015     -0.077011
N      -0.176815     -0.651784     -0.960322
H      -2.285932     -0.636995     -0.630933
H      -1.377306     -1.341704      0.731011
H      -1.610597      1.626992     -0.020082
H      -0.781607      1.063016      1.449612
H       2.969042      0.216319      0.133441
H       1.039891     -1.664659      0.654368
