19
Extracted from Q-Chem output
C       3.251081      0.102184      0.300820
C       1.943879     -0.658235      0.474043
C       0.732431      0.121426     -0.030239
C      -0.583416     -0.429012      0.302962
C      -1.599248     -0.053131     -0.675042
O      -2.927443     -0.393160     -0.388890
C      -3.425957      0.279099      0.740435
H       3.435321      0.344577     -0.748916
H       3.238603      1.042047      0.858933
H       4.099538     -0.483559      0.657605
H       1.776354     -0.910266      1.523305
H       1.994369     -1.608825     -0.064011
H       0.871496      0.457162     -1.072983
H       0.645870      1.054184      0.566277
H      -2.825112      0.055124      1.628895
H      -1.313573     -0.632889     -1.570284
H      -1.520655      1.012276     -0.972601
H      -3.438343      1.367296      0.582600
H      -4.446748     -0.064890      0.898952
