19
Extracted from Q-Chem output
C       2.841259      0.264089      0.190933
C       1.537290     -0.517938      0.284283
C       0.343293      0.389933      0.633777
C      -0.848633     -0.500544      0.718568
C      -1.456100     -0.834705     -0.645888
O      -2.824422     -0.509927     -0.454167
C      -2.694444      0.585286      0.387603
H       2.786216      1.032256     -0.583478
H       3.070096      0.759226      1.137155
H       3.675698     -0.396383     -0.050792
H       1.622278     -1.301773      1.040586
H       1.348819     -1.023773     -0.668068
H       0.268558      1.166705     -0.145748
H       0.546094      0.878114      1.590415
H      -1.924637      0.179347      1.246551
H      -1.347710     -1.889463     -0.908336
H      -1.055327     -0.219555     -1.476791
H      -2.320035      1.490979     -0.104300
H      -3.601425      0.773397      0.963571
