21
smiles: [C:1]([H:8])([H:9])([H:10])[H:11].[C:2]([C:3]([H:12])([H:13])[H:14])[C:4]([C:5]1([H:17])[C:6]([H:18])([H:19])[C:7]1([H:20])[H:21])([H:15])[H:16]
C       -1.49465600       2.31484100      -0.45175600
C       -1.07727700      -1.06846800       0.62961600
C       -2.10971100      -1.66033500      -0.23043500
C        0.26994100      -1.25081800       0.09017700
C        1.33820800      -0.29616300       0.55574300
C        2.69579800      -0.32154000      -0.07596700
C        1.76182300       0.82253400      -0.34621000
H       -1.38974400       1.81169800      -1.41177600
H       -2.48737800       2.75674300      -0.38073900
H       -0.74241800       3.09766900      -0.36686300
H       -1.35873700       1.59354500       0.35256700
H       -2.43631700      -0.75322800      -0.77095700
H       -1.78883100      -2.39104300      -0.98783200
H       -2.99266900      -2.00355200       0.30911600
H        0.43489100      -2.24855400       0.55830000
H        0.33319300      -1.43863000      -0.99628300
H        1.28846600      -0.07048900       1.61410900
H        3.55763900      -0.14205200       0.55288500
H        2.86874200      -1.03149800      -0.87596100
H        1.30428300       0.87681900      -1.32691400
H        1.98389900       1.78435300       0.09621700
