10
Extracted from Q-Chem output
C       0.556563      1.259126      0.617615
C       1.316198      0.223516      0.052250
N       0.790625     -0.882432     -0.480701
N      -0.486885     -1.173895     -0.558552
C      -1.275975     -0.250334     -0.047197
C      -0.801601      0.934232      0.525817
H       1.389394     -1.595562     -0.876311
H       2.403067      0.237421      0.000686
H      -2.333221     -0.485662     -0.109570
H      -1.553495      1.620394      0.911006
