14
Extracted from Q-Chem output
C      -1.880269      0.626092     -0.325402
C      -0.461100      0.264337     -0.058110
C       0.524649      1.055776      0.358011
N       1.728670      0.347540      0.500409
C       1.570300     -0.976025      0.172592
O       2.427216     -1.824839      0.200112
C       0.103329     -1.121000     -0.221584
H      -2.152465      0.419332     -1.364191
H      -2.061249      1.684293     -0.133203
H      -2.560534      0.046593      0.304945
H       0.492411      2.112250      0.582399
H       2.605518      0.729384      0.803669
H      -0.373851     -1.862482      0.424752
H       0.037375     -1.501251     -1.244399
