16
Extracted from Q-Chem output
C       1.747330      0.793674      1.143184
C       2.112258     -0.472649      0.755303
C       1.676316     -1.488839      0.208828
C       0.391756     -1.665350     -0.276554
C      -0.792102     -0.041247      0.253765
C      -1.419645      1.206114     -0.308582
N      -1.610687     -0.053117     -0.977570
H       2.085585      1.643624      0.555262
H       1.607089      1.008372      2.199803
H       0.470875      0.436253      0.602060
H      -0.268138     -2.371593      0.220466
H       0.218647     -1.583471     -1.344270
H      -1.291211     -0.396805      1.152493
H      -0.790918      1.915388     -0.836107
H      -2.246744      1.648771      0.238454
H      -2.531789     -0.430180     -0.788643
