12
Extracted from Q-Chem output
N       1.668201     -0.373500      0.679753
C       0.657953     -0.126353     -0.224673
C      -1.375953     -1.040129     -0.978702
O      -1.519240      0.298315     -0.655573
C      -0.551144      0.625937      0.241423
N      -0.637343      1.335204      1.271740
H       2.603964     -0.119053      0.422074
H       1.435799     -0.183328      1.641229
H       0.998946      0.216275     -1.200457
H      -1.473296     -1.065774     -2.084978
H      -0.070123     -1.164008     -0.517674
H      -1.588881      1.647448      1.440364
