13
Extracted from Q-Chem output
C       1.790091      1.098247      0.631538
C      -0.021900     -0.863206     -0.596087
C      -1.517567     -1.061786     -0.711382
N      -1.680915      0.267620     -0.034766
C      -0.280206      0.271480      0.073424
O       0.381776      1.248576      0.679549
H       2.140653      1.110356     -0.404067
H       2.213948      1.940105      1.172908
H       2.092614      0.159548      1.104307
H       0.843817     -1.345129     -1.015735
H      -1.936164     -1.885177     -0.128580
H      -1.945665     -1.058492     -1.715203
H      -2.192932      0.257894      0.839575
