17
Extracted from Q-Chem output
C      -2.034911     -0.209180      0.272147
C      -0.651557     -0.099038      0.856077
O      -0.061059     -1.358875      1.262985
C       1.187559     -1.018933      0.736715
C       0.731449     -0.847899     -1.066318
C       0.579600      0.179917     -0.004522
C       1.195270      1.539084     -0.157779
H      -2.376904      0.778546     -0.045960
H      -2.067045     -0.880278     -0.585813
H      -2.732713     -0.584077      1.022621
H      -0.663562      0.569312      1.722973
H       1.441441     -1.716732     -0.318394
H       1.493674     -0.635656     -1.808673
H      -0.126852     -1.418129     -1.398790
H       0.593928      2.173349     -0.813980
H       1.283170      2.033590      0.811172
H       2.196398      1.463606     -0.584964
