13
Extracted from Q-Chem output
O       2.065547      1.204707     -0.172918
C       0.889761      0.524048     -0.335411
C       0.635479     -0.870645      0.145147
C      -0.873497     -0.995912     -0.126575
C      -1.347622      0.418107      0.069203
N      -0.267050      1.174041     -0.192521
H       1.239028     -1.638015     -0.334746
H       0.826500     -0.908451      1.237830
H      -1.000627     -1.280218     -1.186496
H      -1.379068     -1.739140      0.487116
H      -2.325983      0.790521     -0.199924
H       2.383629      1.094744      0.733105
H      -0.301489      2.180104     -0.270918
