18
Extracted from Q-Chem output
C       2.145494      0.654354     -0.079328
C       1.437477     -0.670035      0.096244
C       0.661816     -0.944403      1.191687
O      -1.424524     -0.721045      0.685363
C      -1.662430     -0.359233     -0.494589
C      -2.055884      1.081269     -0.775170
H       2.248646      0.920541     -1.132878
H       3.148442      0.617789      0.351108
H       1.596237      1.455868      0.417617
H       1.873389     -1.519033     -0.426453
H       0.367896     -0.518163     -0.843817
H       0.404999     -1.959308      1.454135
H       0.460013     -0.189334      1.937563
H      -2.105483     -1.102432     -1.182476
H      -0.433759     -0.382969     -1.245780
H      -2.050888      1.306534     -1.842986
H      -1.384115      1.763961     -0.253946
H      -3.065521      1.245829     -0.390733
