13
Extracted from Q-Chem output
C      -1.520251     -0.033098      0.327035
C      -0.203222      0.151459     -0.387899
O      -0.325646      0.478018     -1.753607
C       0.900298      0.742302      0.256437
O       1.923596     -0.868883      0.268714
H      -2.142584      0.862463      0.246355
H      -1.365053     -0.253228      1.385333
H      -2.081915     -0.865281     -0.102498
H       0.717690     -0.867072     -0.146694
H      -0.441817     -0.330104     -2.254431
H       1.617832      1.311185     -0.318357
H       0.882488      0.920379      1.324190
H       2.090700     -1.267322      1.131799
