16
Extracted from Q-Chem output
C       0.385337      1.278954     -0.309073
C      -0.375124      0.036888      0.009612
C       0.554996     -0.513031      0.982215
O       2.507402      0.018506      0.577801
C      -1.107846     -0.819291     -0.971580
C      -1.866710     -0.140768      0.131912
H       0.650653      1.382192     -1.358432
H       0.025380      2.189967      0.160713
H       1.886620      0.787814      0.182531
H       0.914268     -1.536960      0.957678
H       0.613863     -0.020896      1.944048
H       2.844817     -0.478178     -0.177721
H      -0.988000     -1.894828     -0.901625
H      -1.215288     -0.439309     -1.978870
H      -2.463865      0.728769     -0.113191
H      -2.260180     -0.758611      0.930429
