10
Extracted from Q-Chem output
O       2.284796     -1.186796     -0.106113
C       1.251903     -0.696326      0.167268
O       0.943107      0.840937     -0.200276
C      -0.310329      0.637227      0.502516
C      -0.892363      0.516925     -0.835645
C       0.007681     -0.780827      0.781227
H      -0.586333      1.398597      1.226288
H      -1.440090     -0.368409     -1.128491
H      -0.671413      1.258910     -1.594717
H      -0.529227     -1.597406      1.231368
