14
Extracted from Q-Chem output
C       2.505408     -0.049968      0.648675
N       1.291649      0.744112      0.631670
C       0.265903      0.267926      0.117670
O       0.036164     -0.937829     -0.490647
C      -1.345154     -0.600760     -0.772832
C      -2.314992     -0.880916      0.204673
C      -1.126317      0.817426     -0.045372
H       3.317261      0.538463      0.219197
H       2.769670     -0.262091      1.686171
H       2.425532     -0.995922      0.106874
H      -1.517878     -0.547423     -1.847298
H      -1.642827      0.991989      0.901575
H      -3.265474     -0.498859     -0.206726
H      -1.270719      1.645343     -0.732991
