14
Extracted from Q-Chem output
C       2.504755     -0.025655      0.650947
N       1.289254      0.762749      0.575988
C       0.267813      0.242188      0.097790
O       0.036539     -1.014466     -0.411122
C      -1.307924     -0.617275     -0.801118
C      -2.272988     -0.613470      0.273230
C      -1.115528      0.756652     -0.175237
H       3.335252      0.572360      0.274695
H       2.712907     -0.251604      1.698570
H       2.456728     -0.965590      0.094934
H      -1.530392     -0.755482     -1.850914
H      -1.707769      0.547798      0.866026
H      -3.205751     -0.209514     -0.148777
H      -1.384782      1.686873     -0.652670
