17
smiles: [C:1]([H:9])[H:10].[C:2]1([H:8])([H:11])[C@@:3]([O:4][H:13])([H:12])[C:5]([H:14])([H:15])[C@@:6]1([O:7][H:17])[H:16]
C       -1.08850000      -1.79195100      -0.95753000
C       -0.64150300       0.72428500       0.76994900
C        0.30404100      -0.47979200       0.78325100
O       -0.31721300      -1.69792000       0.45901100
C        1.16340600       0.22557100      -0.28716500
C        0.49955600       1.54125800       0.12825500
O        0.19963000       2.39577800      -0.94645400
H       -1.42885000       0.55430000       0.03358400
H       -1.86491900      -2.52122000      -0.64560100
H       -0.38169700      -2.43402500      -1.52337600
H       -1.07372500       1.06124000       1.71181800
H        0.83876200      -0.55825600       1.73698400
H        0.34329800      -2.39297100       0.45849400
H        2.24925900       0.14872000      -0.23532600
H        0.81407100      -0.05606800      -1.28202800
H        1.09093300       2.06650500       0.88731200
H       -0.23258600       3.18141300      -0.60672800
