11
Extracted from Q-Chem output
C       3.054010      1.054446      0.340099
C       1.847892      0.728602      0.240346
C       0.557316      0.344869      0.117236
C       0.002845     -0.960820     -0.377431
C      -1.464129     -0.709767     -0.249653
N      -1.731857      0.450446      0.204658
N      -0.517947      1.075267      0.421321
H       0.320923     -1.159794     -1.403696
H       0.355851     -1.795318      0.233117
H      -2.261985     -1.395446     -0.497268
H      -0.506352      2.012610      0.786057
