11
Extracted from Q-Chem output
C       2.122658      0.134162     -0.468283
C       1.927989      0.426595      0.763010
C       0.518710      0.229321      0.561300
C      -0.023395     -0.883160     -0.196701
C      -1.381108     -0.464597     -0.462629
N      -1.625274      0.710656      0.024953
N      -0.476393      1.118599      0.640660
H       1.102376     -0.629900     -1.032373
H       0.262882     -1.907293      0.003764
H      -2.160998     -1.002341     -0.980737
H      -0.416214      2.054849      1.000635
