15
smiles: [C:1](=[C:2]1[C:3]([H:11])([H:12])[C:4]1([H:13])[H:14])([H:8])[H:10].[O:5]=[C:6]([O:7][H:9])[H:15]
C       -0.88094800       1.51064800      -0.72567900
C       -1.10341900       0.29960100      -0.26961200
C       -1.21846400      -1.13137300      -0.54199600
C       -1.40464500      -0.56712200       0.86768100
O        1.87294500      -1.16988700       0.68739700
C        2.60464800      -0.27264100       0.39509900
O        2.21413800       0.89486300      -0.12508300
H       -0.67318600       1.68606300      -1.77495900
H        1.25156100       0.86741000      -0.21369900
H       -0.89859300       2.37151400      -0.06731600
H       -2.10005000      -1.49144500      -1.05961500
H       -0.31514200      -1.69522900      -0.74421500
H       -2.40809300      -0.55560100       1.27732800
H       -0.62395100      -0.75908400       1.59459100
H        3.69608500      -0.28423100       0.51345500
