11
Extracted from Q-Chem output
O       2.187912     -0.265054     -0.057433
C       0.842778     -0.133724     -0.097483
C      -0.002064     -1.114078     -0.616340
N      -1.287725     -0.727646     -0.562879
C      -1.266403      0.536194      0.112034
C       0.054821      0.908486      0.377037
H       2.577843      0.523669      0.322638
H       0.273992     -2.090258     -0.985413
H      -1.661003     -0.573189      0.641250
H      -2.156754      1.147318      0.085883
H       0.383471      1.820331      0.852831
