16
Extracted from Q-Chem output
C       1.729077      0.296008      0.360980
N       0.982097     -0.657649     -0.361809
C       0.215233     -1.464026      0.384390
C      -0.980880      0.324417      0.742504
C      -0.771475      1.130954     -0.527630
C      -0.216692     -0.160441     -1.136853
C      -1.074941     -0.961874     -0.118999
H       2.299001     -0.166362      1.166700
H       0.421111      0.593198      1.035208
H       2.335806      0.954150     -0.258897
H       0.524720     -1.890456      1.331642
H      -1.679475      0.543708      1.538879
H      -0.135251      2.017925     -0.498639
H      -1.710089      1.338866     -1.048971
H      -0.155059     -0.325147     -2.208575
H      -1.974151     -1.540505     -0.314377
