11
smiles: [O+:1]#[C-:2].[O:3]=[C:4]([C@@:5]1([H:8])[C:6]([H:10])([H:11])[O:7]1)[H:9]
O       -2.30897800       3.41543400      -1.69191300
C       -2.47046900       2.63376900      -0.90136600
O        0.15675700       1.09485400      -0.65442900
C       -0.22547200       0.39379200       0.23795500
C        0.59036000      -0.70234700       0.85152400
C        1.27515300      -1.65013400      -0.04075100
O        1.98384200      -0.65389100       0.65164100
H        0.26592100      -1.04238800       1.83239000
H       -1.24542300       0.50167400       0.66101400
H        1.19159200      -1.49698700      -1.11286800
H        1.43456700      -2.66958600       0.29796200
