11
Extracted from Q-Chem output
O      -1.091773      2.392997     -1.821127
C      -0.572582      1.737622     -1.064129
O      -1.888316      0.012054     -0.283229
C      -1.084964     -0.238479      0.683447
C       0.373003     -0.197337      0.440166
C       1.519473     -0.658356     -0.287959
O       1.451428     -0.264581      1.145919
H      -0.885201     -1.373461      0.865314
H      -1.280132      0.152863      1.703542
H       2.067058      0.037567     -0.909312
H       1.677352     -1.719576     -0.435852
