16
smiles: [C:1]([C:2]([C:3]([H:11])([H:12])[H:13])=[C:4]([H:14])[H:15])([H:8])([H:9])[H:10].[O:5]=[C:6]=[N:7][H:16]
C        0.85990600       0.83953800       0.99571000
C        0.63906700      -0.51394400       0.38464400
C        1.31767200      -0.74922200      -0.93365200
C       -0.10754000      -1.44145900       0.97074400
O       -2.46759800       2.67758200      -1.09923900
C       -2.33970900       1.53194300      -0.97125400
N       -2.31481700       0.32564700      -0.92496500
H        0.51493200       1.62866400       0.32139100
H        1.92554700       1.01603400       1.16859800
H        0.33598500       0.94389300       1.94553700
H        2.40085600      -0.63051300      -0.83680100
H        1.11472500      -1.74779300      -1.32021000
H        0.98566600      -0.01758200      -1.67585300
H       -0.25816200      -2.41535300       0.51897300
H       -0.59271000      -1.26046700       1.92316900
H       -1.66853800      -0.22637400      -0.39252200
