16
Extracted from Q-Chem output
C       0.847091      1.069329      0.743373
C       0.544961     -0.321123      0.278575
C       1.474485     -0.896456     -0.741812
C      -0.476569     -1.040560      0.791985
O      -2.490447      1.467921      0.390056
C      -2.131793      0.745096     -0.494691
N      -1.402355     -0.175637     -0.974845
H       0.904373      1.753017     -0.106393
H       1.825097      1.084320      1.232735
H       0.095047      1.439899      1.437315
H       2.491917     -0.927543     -0.342569
H       1.181467     -1.902576     -1.037321
H       1.493458     -0.264773     -1.632418
H      -0.630896     -2.072751      0.506886
H      -1.102290     -0.638001      1.579540
H      -2.550431      0.673225     -1.615608
