14
Extracted from Q-Chem output
N       1.629681     -1.805839     -0.315982
C       0.947525     -0.761464     -0.423270
O       1.403703      0.435981     -0.967529
C       0.376530      1.312009     -0.832943
C      -0.897387      0.678088     -0.775922
C      -1.369050     -0.817490     -1.082879
C      -0.455788     -0.515543      0.003589
H       2.575604     -1.679553     -0.663929
H       0.603302      2.323634     -1.141388
H       0.388576      1.324087      0.821908
H      -1.705546      1.277733     -0.379794
H      -1.035923     -1.404940     -1.934358
H      -2.440631     -0.832087     -0.921253
H       0.003903      0.459718      1.101889
