10
Extracted from Q-Chem output
N       1.819277     -0.242273      0.141144
C       2.933572      0.092292      0.176823
C       0.453680     -0.621208      0.095985
C      -0.434715      0.616713     -0.068402
C      -1.844286      0.241948     -0.116991
N      -2.944894     -0.076585     -0.153449
H       0.204106     -1.149538      1.016791
H       0.305734     -1.309674     -0.736623
H      -0.175227      1.145130     -0.987126
H      -0.277293      1.304970      0.763422
