10
Extracted from Q-Chem output
N       2.083917     -0.275414      0.934527
C       2.136153     -0.044363     -0.226522
C       0.493980     -0.591925      0.052006
C      -0.375025      0.642890     -0.123299
C      -1.783659      0.257521     -0.191775
N      -2.880462     -0.071686     -0.246837
H       0.221856     -1.151784      0.943374
H       0.471805     -1.270799     -0.794950
H      -0.104722      1.180407     -1.032652
H      -0.234550      1.323606      0.717358
