18
Extracted from Q-Chem output
C      -1.386084      0.554357     -1.077829
C      -1.583983      0.758207      0.364301
C      -0.490685      0.760504      1.306810
N       0.466802     -0.264091      1.151799
C       1.394301     -0.045786      0.206952
O       1.541929      1.022101     -0.407506
C       2.309258     -1.213718     -0.077961
H      -0.753260     -0.310786     -1.271714
H      -2.326342      0.489561     -1.620567
H      -0.804801      1.412771     -1.444608
H      -2.522656      1.208926      0.686357
H      -1.783896     -1.143170      0.764965
H      -0.002578      1.707564      0.942668
H      -0.828432      0.903115      2.333858
H      -1.001236     -1.284984      0.892823
H       2.264679     -1.448809     -1.142397
H       2.041855     -2.089957      0.509403
H       3.335530     -0.921322      0.147583
