12
Extracted from Q-Chem output
O      -1.604649      0.883166      0.462894
C      -1.052332     -0.179955     -0.262352
C       0.083718      0.107045     -1.171917
C       0.296086     -0.640086      0.158649
C       1.055525     -0.018615      1.170814
O       2.126474     -0.678733      1.337528
H      -2.180484      1.382887     -0.119358
H      -1.762521     -0.955744     -0.538323
H       0.221455     -0.473846     -2.075507
H       0.395091      1.143640     -1.235730
H       1.596227     -1.394499      0.526948
H       0.855959      0.848342      1.800950
