15
Extracted from Q-Chem output
C       0.912108      1.160079      0.274020
C       1.487903     -0.176124     -0.082340
C       0.478270     -1.198058      0.235420
O      -0.605853     -0.935828      1.186127
C      -1.289414      0.031076      0.618204
C      -0.494174      0.774678     -0.319803
C       0.239211     -0.420652     -1.036178
H       0.905920      1.449375      1.328028
H       1.339867      1.957675     -0.329532
H       2.533185     -0.394000     -0.258450
H       0.714394     -2.252888      0.206755
H      -2.225836      0.293320      1.097857
H      -1.909441     -0.927945     -0.833698
H      -1.015334      1.514507     -0.917853
H      -1.182909     -1.055638     -1.312863
