12
Extracted from Q-Chem output
O       1.688117     -0.788620     -0.956474
C       0.542934     -0.878281     -0.318387
C       0.300782     -0.328329      1.081952
C      -0.685016      0.691526      0.554638
O      -0.062930      1.709384     -0.172942
C      -0.510222      0.579612     -0.910273
H       0.755820      0.005600     -1.348856
H      -0.158411     -1.684629     -0.585786
H      -0.141081     -1.069852      1.745786
H       1.189224      0.115362      1.525361
H      -1.633300      0.928475      1.020845
H      -1.304524      0.720384     -1.636776
