15
Extracted from Q-Chem output
C      -1.745625     -0.561974     -0.054698
C      -0.522772      0.324111      0.046767
C       0.558024     -0.064682      1.055664
C       1.796381      0.311996      0.231475
C       1.077177      0.239748     -1.083014
N       1.035244      0.083782     -2.286330
H      -2.321959     -0.557679      0.876652
H      -2.420472     -0.235668     -0.849755
H      -1.467428     -1.599115     -0.261931
H      -0.787352      1.381231      0.129990
H      -0.073712      0.171492     -1.527796
H       0.493340      0.445916      2.016933
H       0.535468     -1.141043      1.237696
H       2.663872     -0.347168      0.282442
H       2.120664      1.339678      0.408633
