16
Extracted from Q-Chem output
C      -1.912413     -0.227493      0.167838
C      -0.856188      0.513078      0.929867
O      -0.056398     -0.259931      1.676279
C       0.451798      1.024171     -0.810785
C       1.558867      0.029614     -0.646870
O       1.018778     -1.285832     -0.764114
H      -2.677966     -0.512759      0.895058
H      -2.385946      0.414548     -0.573478
H      -1.554182     -1.141258     -0.324153
H      -0.262685      1.382364      0.320442
H       0.000968     -1.154718      1.303266
H       0.845435      2.038818     -0.912960
H      -0.209345      0.790439     -1.641921
H       2.031776      0.154824      0.336383
H       2.332431      0.186621     -1.410592
H       1.743115     -1.912509     -0.787208
