15
Extracted from Q-Chem output
C       0.061433     -0.907212     -1.559864
C      -1.105865      0.506142      0.150025
C      -1.339516      1.182924      1.444460
C      -0.010715     -0.218343     -0.216479
C       1.076638     -0.193079      0.676748
C       2.396020     -0.531024      0.290937
O       2.855714     -1.660669      0.328379
H      -0.914665     -0.944818     -2.045677
H       0.759697     -0.391594     -2.223014
H       0.426116     -1.927738     -1.440216
H      -1.889701      0.634961     -0.597150
H      -0.590888      0.899514      2.181023
H      -1.305670      2.268495      1.309687
H      -2.347212      0.948879      1.797969
H       3.026723      0.353226      0.034232
