15
smiles: [C:1](=[C:2]([H:10])[H:11])([H:7])[H:8].[N:3](=[C:4](/[O:5][H:9])[C:6]([H:13])([H:14])[H:15])\[H:12]
C       -2.60313600       0.26608000       0.01940900
C       -2.45234500      -0.90166600      -0.58137500
N        0.67485900       0.64100000      -0.97536400
C        1.25706800       0.14523300       0.02915200
O        0.53650500      -0.52811400       0.94676100
C        2.70818800       0.18353400       0.39557900
H       -3.35274400       0.41857600       0.78763300
H       -1.98335900       1.11926600      -0.23192700
H       -0.37894600      -0.50789700       0.64162700
H       -3.07212900      -1.75485000      -0.33004300
H       -1.70274400      -1.05418800      -1.34960000
H        1.32684200       1.12007700      -1.58433600
H        3.28406000       0.73983500      -0.34063300
H        3.09706100      -0.83318400       0.46596500
H        2.82711800       0.64886700       1.37490900
