13
Extracted from Q-Chem output
C      -1.658767     -0.355630     -0.748267
N      -0.645996     -0.248290      0.270956
C      -0.276904      0.610282      1.390936
C       0.601853      0.075749      0.330278
C       1.781732      0.032381     -0.386464
C       1.686679     -0.562027     -1.638748
H      -1.202354     -0.863210     -1.596065
H      -1.986737      0.641659     -1.054780
H      -2.510020     -0.917953     -0.368360
H      -0.524085      1.669826      1.336805
H      -0.324474      0.160052      2.376689
H       2.655749      0.480704      0.088257
H       2.671360     -0.504820     -2.134736
