11
Extracted from Q-Chem output
C      -1.242710     -0.175284      0.294022
C       0.049177      0.606257      0.091573
C       1.205900     -0.274751     -0.362945
H      -2.056045      0.472279      0.626915
H      -1.112219     -0.959588      1.044043
H      -1.560685     -0.657323     -0.634014
H       0.320435      1.109163      1.024750
H      -0.116332      1.399693     -0.643419
H       1.408784     -1.062226      0.367367
H       2.123606      0.302077     -0.492474
H       0.980088     -0.760297     -1.315818
