11
Extracted from Q-Chem output
N       2.048281      1.261748      0.395438
C       1.024699      0.553378      0.366856
O      -0.102832      0.896496      1.094304
C      -1.130214      0.068264      0.832704
C      -0.489947     -1.086278      0.118601
O       0.787539     -0.585515     -0.304498
H       2.785850      0.858832     -0.170868
H      -1.687483      0.783531     -0.636806
H      -2.068025      0.681842      0.135607
H      -0.324334     -1.888942      0.843004
H      -1.040668     -1.469796     -0.735524
