19
Extracted from Q-Chem output
C       2.670333      0.076444     -0.172580
C       1.236665     -0.324642      0.229036
O       1.062888     -0.562056      1.531353
C       0.339542      0.846939     -0.061866
C      -0.800976      0.883813     -0.912796
C      -1.442734      0.279882      0.418732
C      -2.089380     -1.069952      0.159338
H       2.782998      0.283733     -1.241558
H       3.316756     -0.759562      0.094532
H       2.990729      0.943868      0.408440
H       0.934968     -1.152953     -0.458532
H      -0.647229      0.053834      1.211253
H       0.545670      1.708270      0.570067
H      -0.828767      0.149224     -1.711796
H      -1.216280      1.847158     -1.187325
H      -2.092972      1.039170      0.844866
H      -1.344515     -1.787991     -0.185919
H      -2.881494     -0.995378     -0.587527
H      -2.508975     -1.458351      1.087023
