10
smiles: [N:1](=[C:2]=[O:7])[H:8].[c:3]1([H:9])[c:4]([H:10])[c:5]1=[O:6]
N        1.85339100       1.36220900      -0.56212800
C        1.99034700       1.02356300       0.58888300
C       -0.82472200      -0.73419800       0.57502800
C       -1.88594200      -1.12868900      -0.13538400
C       -0.92525900      -0.29594800      -0.77559800
O       -0.51585600       0.30941600      -1.72341100
O        2.23540300       0.76936300       1.69365700
H        1.08926200       1.10577000      -1.15913200
H       -0.34503400      -0.79441900       1.54168500
H       -2.79905800      -1.70591500      -0.10178000
