10
Extracted from Q-Chem output
N       1.870956     -0.241121     -0.434180
C       1.458511      0.578657      0.404106
C      -0.307406     -0.699057      0.561441
C      -1.463438     -0.615283     -0.182611
C      -1.703402      0.715321     -0.351571
O      -1.861170      1.831706     -0.462486
O       1.375439      1.514181      1.103515
H       2.774149     -0.008919     -0.831691
H      -0.006561     -1.721464      0.801424
H      -2.137077     -1.354022     -0.607948
