12
Extracted from Q-Chem output
O       1.518435      1.400060      0.863686
C       1.778806      0.537339      0.071519
C       0.813815     -0.538422     -0.383549
C      -0.309416     -0.664803      0.595142
C      -1.331263      0.380112      0.374379
O      -1.955439     -0.614198     -0.472126
H       2.781414      0.483984     -0.398859
H       1.379141     -1.465055     -0.510029
H       0.478824     -0.222870     -1.384510
H      -2.325254     -1.294688      0.101475
H      -1.947655      0.667999      1.224301
H      -1.106293      1.239562     -0.261057
