12
Extracted from Q-Chem output
O       1.542182      1.293011      0.956141
C       1.753612      0.463977      0.116143
C       0.732548     -0.525872     -0.397350
C      -0.462362     -0.605708      0.503109
C      -1.429540      0.489805      0.344633
O      -1.930907     -0.585823     -0.473281
H       2.750425      0.385090     -0.363449
H       1.227462     -1.492695     -0.518683
H       0.460645     -0.183170     -1.406964
H      -1.582892     -1.389883      0.206255
H      -2.076494      0.758877      1.175252
H      -1.161999      1.331827     -0.289424
