13
Extracted from Q-Chem output
O      -0.819459     -1.767958     -2.191930
C      -0.354709     -1.037946     -1.373800
C      -0.153337      1.031042      1.638174
C       0.021362      0.309540      0.545724
C       1.081602      0.543705     -0.503863
O       0.690576     -0.223579     -1.642175
C      -0.782340     -0.861344      0.070339
H      -0.938465      0.803295      2.348525
H       0.487313      1.875561      1.864556
H       1.157460      1.589723     -0.802340
H       2.065701      0.196960     -0.176830
H      -0.541399     -1.782226      0.608149
H      -1.860709     -0.720275      0.126445
