13
Extracted from Q-Chem output
O      -1.937692     -0.160365     -1.496742
C      -1.196855     -0.343766     -0.627480
C      -0.653592      1.050328      0.715656
C       0.342331      0.107569      0.491907
C       1.594599      0.284054     -0.242415
O       0.849207      0.046385     -1.386580
C      -0.429904     -1.202766      0.274237
H      -1.503764      0.771059      1.326839
H      -0.482649      2.108307      0.563764
H       2.008773      1.296681     -0.153580
H       2.377730     -0.456445     -0.027892
H       0.095912     -2.015105     -0.214691
H      -0.996947     -1.518002      1.150946
