13
Extracted from Q-Chem output
N       2.425343     -0.121810     -0.014478
C       1.328289     -0.283956      0.431245
C       0.077144     -1.003047      0.735954
C      -0.900318     -0.467230     -0.321316
C      -0.642475      1.061739     -0.434740
O       0.603887      1.332180      0.156999
H       1.768441      0.990758     -0.276040
H       0.243148     -2.076550      0.651661
H      -0.247956     -0.763617      1.748893
H      -1.933560     -0.688029     -0.054572
H      -0.692161     -0.960332     -1.272663
H      -1.412547      1.619849      0.106048
H      -0.670429      1.379013     -1.480918
