19
smiles: [C-:1]([O+:2]=[C:3]([C@@:4]([C:5]([H:14])([H:15])[H:16])([C:6]([O:7][H:19])([H:17])[H:18])[H:13])[H:12])([H:8])[H:10].[H:9][H:11]
C        2.63566800       0.31481200      -1.05014300
O        1.34914300       0.40956400      -0.92976400
C        0.56603800       0.08391400       0.04637200
C       -0.90788100       0.18266500      -0.16388500
C       -1.57642700      -1.19530600      -0.22072200
C       -1.55575400       1.04109400       0.92632400
O       -1.06155600       2.35941600       0.94878700
H        3.21853600      -0.09498500      -0.23650600
H        2.13909400      -1.74802000      -1.51611700
H        3.03838500       0.70377000      -1.96823200
H        1.50513200      -2.02195400      -1.23781100
H        1.01650500      -0.39437600       0.91321600
H       -1.05807500       0.69625700      -1.11842500
H       -2.65309300      -1.10239000      -0.38263600
H       -1.42552900      -1.74180100       0.71396100
H       -1.16047600      -1.79594200      -1.03019000
H       -2.63031200       1.11800900       0.74760200
H       -1.42088900       0.55193900       1.90315600
H       -0.10113700       2.30718300       0.94617200
