19
Extracted from Q-Chem output
C       2.630803      0.306736     -0.853078
O       1.256784      0.584844     -0.767083
C       0.494423     -0.521633     -0.330542
C      -0.976488     -0.147019     -0.241565
C      -1.778820     -1.352535      0.237569
C      -1.204070      1.051651      0.679673
O      -0.753587      2.273773      0.145491
H       2.825710     -0.499327     -1.571187
H       3.129278      1.212723     -1.194079
H       3.040863      0.014545      0.121727
H       0.632614     -1.360576     -1.027804
H       0.855032     -0.850647      0.657299
H      -1.315141      0.140067     -1.242720
H      -2.848753     -1.140720      0.216453
H      -1.513598     -1.619458      1.264682
H      -1.600514     -2.228143     -0.389910
H      -2.275195      1.171033      0.861240
H      -0.731818      0.847843      1.654679
H       0.132476      2.116843     -0.198841
