19
Extracted from Q-Chem output
C       2.621650      0.377765     -0.919917
O       1.319556      0.543498     -0.832728
C       0.525236     -0.252775     -0.177400
C      -0.942175      0.017509     -0.249196
C      -1.727723     -1.280270     -0.071549
C      -1.383917      1.046272      0.802169
O      -0.826130      2.324528      0.607213
H       3.136884     -0.069221     -0.077945
H       2.143267     -1.387654     -1.492478
H       3.106095      1.111040     -1.545751
H       1.427204     -1.660897     -1.251955
H       0.949350     -0.795318      0.665093
H      -1.155085      0.444574     -1.233702
H      -2.801841     -1.091869     -0.118459
H      -1.514046     -1.741339      0.896636
H      -1.471773     -2.000970     -0.848111
H      -2.466310      1.180307      0.743438
H      -1.153065      0.660878      1.806420
H       0.130194      2.247790      0.589377
