14
Extracted from Q-Chem output
O      -0.839990     -0.980522      1.210437
C      -0.992445     -0.584245      0.002958
C      -1.191513      0.905588     -0.270927
N       0.196369      1.331875     -0.403955
C       0.813413      0.071549     -0.747057
C       1.568135     -0.673223      0.141956
O       1.453865     -0.553901      1.405084
H       0.225316     -0.680453      1.556766
H      -1.372333     -1.321240     -0.709519
H      -1.729035      1.398365      0.541971
H      -1.738935      1.060694     -1.205123
H       0.560345      1.652244      0.485046
H       0.942326     -0.115224     -1.808759
H       2.168701     -1.500070     -0.252200
