21
Extracted from Q-Chem output
C      -1.657801     -0.671326     -1.388057
C      -0.986807     -0.412428      0.760641
C      -2.166918      0.388102      1.209474
C       0.222314      0.425887      0.498421
C       1.468800     -0.329109      0.054321
C       2.515007      0.601101     -0.541770
O       1.975059     -0.992626      1.202171
H      -2.617094     -1.164259     -1.539728
H      -0.908385     -1.029188     -2.092015
H      -1.762180      0.406591     -1.441098
H      -1.295619     -1.143189     -0.315752
H      -3.104419     -0.160117      1.113455
H      -2.279073      1.384820      0.754474
H      -2.006855      0.542480      2.282601
H       0.451005      0.868016      1.478241
H       0.034310      1.282415     -0.167990
H       1.178396     -1.074417     -0.698844
H       2.789862      1.371817      0.181641
H       2.137346      1.087467     -1.444156
H       3.418963      0.049911     -0.811055
H       2.619951     -1.644670      0.925204
