14
Extracted from Q-Chem output
O       1.565606      2.019929     -0.343292
C       0.799756      1.106125     -0.123651
C       1.254922     -0.276242      0.285132
C       0.304872     -1.380627     -0.183915
C      -1.135992     -1.201636      0.002316
C      -1.508029      0.207091      0.116231
N      -0.549588      1.240329     -0.225964
H       1.317641     -0.293276      1.377991
H       2.267724     -0.416133     -0.089956
H       0.648077     -2.377224      0.097817
H       0.267815     -1.408107     -1.296929
H      -1.753563      0.191056      1.203795
H      -2.465489      0.414940     -0.364667
H      -0.878917      2.165842     -0.447621
