14
Extracted from Q-Chem output
C      -1.581328     -0.120694      0.393354
C      -0.893594      0.727097     -0.388739
C       0.465774      1.265483     -0.065200
O       1.125816      0.579367      1.001130
C       1.603652     -0.647436      0.648323
N       0.945205     -1.465179     -0.048129
C      -0.259356     -1.656422     -0.465542
H      -1.258346     -0.362896      1.396002
H      -2.569456     -0.457632      0.111237
H      -1.302381      1.037272     -1.345880
H       0.410676      2.307785      0.254095
H       1.101513      1.228618     -0.960806
H       2.596051     -0.868262      1.019725
H      -0.377050     -1.565048     -1.552133
