15
Extracted from Q-Chem output
C      -1.577937     -0.878629     -0.214373
N      -0.489068     -0.123330      0.365965
C      -0.698913      1.304326      0.243360
C       0.782468     -0.521872     -0.178652
C       1.963962      0.045448      0.537319
O       3.113269     -0.109328     -0.045741
H      -1.685503     -0.712534     -1.300918
H      -2.516239     -0.593839      0.264006
H      -1.422776     -1.946131     -0.046983
H      -1.634892      1.582390      0.729718
H       0.113037      1.838632      0.738810
H      -0.744803      1.637088     -0.809035
H       0.907455     -0.283967     -1.256400
H       0.898502     -1.609894     -0.087722
H       3.066739      0.404373      1.002140
