13
Extracted from Q-Chem output
C      -1.522819      0.510745      0.303177
C      -0.251810      0.299317     -0.514105
C       1.011903     -2.236690     -0.064820
C       0.895088      1.105743      0.016117
O       1.937564      0.655005      0.405745
H      -2.353166     -0.040125     -0.136941
H      -1.390731      0.159770      1.327657
H      -1.801302      1.566564      0.338005
H      -0.419152      0.599605     -1.554590
H       1.961975     -1.970457     -0.567321
H       0.004641     -0.782312     -0.540936
H       1.240011     -1.984166      0.989083
H       0.718915      2.202713      0.043529
