13
Extracted from Q-Chem output
N       2.181398     -0.059296      1.780062
C       1.650677     -0.166831      0.768002
C       0.977919     -0.264748     -0.533493
C      -0.532660     -0.684448     -0.346746
C      -1.375804      0.303058      0.448780
C       0.822821      0.969660     -1.321618
H       1.437463     -1.062354     -1.121272
H      -0.948211     -0.845750     -1.341089
H      -0.497535     -1.648866      0.162139
H      -2.357266     -0.128220      0.647553
H      -0.913534      0.536278      1.409879
H       0.875668      1.824010     -0.621855
H      -1.532029      1.237663     -0.093177
