18
Extracted from Q-Chem output
C       2.197793     -0.098845      0.699178
C       0.938459      0.372091      0.037214
C      -0.160459      0.818058      0.749742
C      -1.404563      1.135037      0.060403
C      -1.582514     -0.953806     -0.909776
C      -0.287545     -1.387154     -0.796494
H       2.003257     -0.433023      1.720796
H       2.965007      0.680715      0.744128
H       2.631449     -0.941929      0.154918
H       1.039216      0.730712     -0.982169
H      -0.529628      2.028515      0.680611
H      -0.261807      0.534390      1.793205
H      -2.313062      1.272965      0.631068
H      -1.358816      1.575747     -0.925820
H      -2.328356     -1.253799     -0.184584
H      -1.967204     -0.613111     -1.863368
H       0.007311     -2.036853      0.018337
H       0.357605     -1.420573     -1.665708
