15
smiles: [H:8][H:13].[N:4]1=[C:5]([H:12])[C:6]1([H:14])[H:15].[O:1]([C:2](=[C:3]([H:10])[H:11])[H:9])[H:7]
O       -1.49961900       1.57558600      -0.34869700
C       -2.04310900       0.97163100       0.73322800
C       -1.79785100      -0.25778600       1.16252800
N        0.64560900      -0.05357500      -1.42254900
C        1.79071300      -0.20227000      -1.88423300
C        1.42633400      -1.29537100      -1.01234200
H       -0.88642600       0.97214000      -0.77704800
H        0.90684500       0.92546100       1.56118400
H       -2.73539100       1.63630200       1.23678900
H       -1.10436700      -0.91896600       0.65450300
H       -2.29568300      -0.62969900       2.04569700
H        2.47937000       0.31030700      -2.54083000
H        1.63112300       1.06188800       1.66750800
H        1.78255100      -1.32640000       0.01237800
H        1.08295300      -2.23926200      -1.42339700
