15
Extracted from Q-Chem output
O      -1.991622     -1.067990      0.531832
C      -1.220746     -0.059895      1.064660
C      -0.948741      1.108631      0.412914
N       0.923076      1.004054     -0.725072
C       1.707615      0.064518     -0.275542
C       0.969138     -0.271344     -1.481176
H      -2.186860     -0.861094     -0.385160
H       0.239738     -0.658240      1.074285
H      -1.193810     -0.118063      2.146264
H      -1.397022      1.330581     -0.546030
H      -0.560378      1.947942      0.967655
H       2.700728      0.100147      0.149745
H       1.049975     -0.724656      0.747468
H       0.133254     -0.963301     -1.370479
H       1.408208     -0.231199     -2.473169
