15
Extracted from Q-Chem output
C      -2.762124     -0.136071     -0.504167
N      -1.055697      0.401781      0.392158
C      -0.578977     -0.455583      1.353478
N       0.684307     -0.685488      1.215974
C       1.089198      0.053194      0.108286
C       2.500547      0.018132     -0.359626
C       0.033111      0.727340     -0.404125
H      -2.301460     -0.213140     -1.497616
H      -2.768081     -1.153902     -0.092898
H      -2.007892      0.877975      0.397026
H      -1.226216     -0.869956      2.112607
H       3.176600      0.322834      0.440429
H       2.777951     -0.995448     -0.655057
H       2.647672      0.680691     -1.212289
H      -0.061696      1.393116     -1.245424
