10
Extracted from Q-Chem output
O       2.525198      1.087973      0.149681
C       1.998251      0.053495     -0.125784
C       0.499553     -0.137200     -0.076879
N      -0.063740     -1.281832     -0.381593
C      -1.428857     -1.128321     -0.240005
C      -1.592746      0.276566      0.194346
O      -0.249009      0.859287      0.275319
H       2.539339     -0.853787     -0.439250
H      -2.173309      0.867377     -0.517640
H      -2.052196      0.351793      1.182585
