14
Extracted from Q-Chem output
C      -1.897573     -0.953434     -0.507866
C      -0.721089     -0.084111     -0.896666
O      -0.400648      0.894982      0.084032
C       2.272914      1.021628      0.465973
C       1.469890      0.360785      1.282689
O       0.120709      0.213600      1.211010
H      -2.775488     -0.340342     -0.300820
H      -1.668199     -1.544401      0.378543
H      -2.136918     -1.639846     -1.322449
H       0.170345     -0.680149     -1.117735
H      -0.950233      0.525089     -1.774442
H       3.331308      1.032731      0.681113
H       1.907276      1.558716     -0.395943
H       1.814170     -0.171852      2.162408
