11
Extracted from Q-Chem output
C      -1.608659     -0.269586     -0.715156
N      -1.196249      0.239567      0.594628
C       0.056515      0.279237      0.981673
O       0.943587     -0.294020      0.098433
C       2.280723     -0.163431      0.352941
O       2.780377      0.556982      1.147540
H      -2.640798      0.021215     -0.894093
H      -1.546977     -1.358752     -0.696139
H      -0.967186      0.091500     -1.521011
H      -0.682251      1.309813      1.037020
H       2.821925     -0.833397     -0.329065
