14
Extracted from Q-Chem output
O       1.262417     -0.041540      0.938985
C       1.232676      1.085097      0.178314
C       0.236189      1.303371     -0.673752
C      -0.100452     -1.016956     -0.813639
C       0.138024     -0.888158      0.695293
C      -1.145666     -0.051011      0.656611
N      -0.813217      0.309585     -0.768061
H       2.075493      1.740135      0.349618
H       0.171996      2.184447     -1.296473
H       0.761656     -1.058295     -1.477547
H       0.248673     -1.755339      1.343522
H      -0.808303     -1.811238     -1.049465
H      -1.240604      0.792933      1.338124
H      -2.041426     -0.671095      0.684283
