14
Extracted from Q-Chem output
O       1.184519      0.399507      1.327663
C       1.230465      1.183701      0.331545
C       0.279227      1.279632     -0.663110
C       0.023276     -0.765790     -0.867757
C      -0.099306     -1.175100      0.477261
C      -1.234846     -0.164954      0.623012
N      -0.861377      0.360381     -0.743761
H       2.107997      1.839503      0.214123
H       0.393920      1.941414     -1.508844
H       0.664543     -1.017608     -1.700212
H       0.376220     -1.938938      1.073932
H      -0.691550     -1.840481     -0.556056
H      -1.114116      0.543996      1.430926
H      -2.238250     -0.594817      0.615837
