17
smiles: [C:1]([C@@:2]1([H:11])[C:3]([H:12])([H:13])[C:4]([H:14])=[C:5]([H:15])[C:6]1=[O:7])([H:8])([H:9])[H:10].[H:16][H:17]
C        1.61458000      -0.53793400      -0.06553700
C        0.28077300       0.08926200       0.31515000
C        0.10362700       1.55908800      -0.09134100
C       -1.18651100       1.58523100      -0.86093500
C       -1.73812100       0.38322400      -1.00504500
C       -0.89192500      -0.63715300      -0.35037400
O       -1.06987000      -1.82890400      -0.33722700
H        1.79718400      -0.43627200      -1.13830100
H        2.44045100      -0.06104900       0.46497000
H        1.61268300      -1.60118300       0.17541300
H        0.12949700      -0.02195900       1.39335900
H        0.92732900       1.90787500      -0.72225100
H        0.06464900       2.23600500       0.76571300
H       -1.59817700       2.50637600      -1.25722800
H       -2.65227700       0.13995500      -1.52823600
H        0.22728000      -2.77102800       2.60950900
H       -0.11239400      -2.74137000       1.94757700
