17
Extracted from Q-Chem output
C       1.713180     -0.488262     -0.482037
C       0.628419     -0.009729      0.480475
C       0.125041      1.404100      0.150515
C      -1.138315      1.158586     -0.625523
C      -1.554738     -0.099323     -0.542381
C      -0.607433     -0.901849      0.280915
O      -0.505251     -2.216237      0.191742
H       1.396774     -0.370384     -1.520955
H       2.625693      0.090992     -0.334336
H       1.928057     -1.542965     -0.315113
H       0.994389     -0.097822      1.503219
H       0.852252      1.986101     -0.420308
H      -0.099346      1.980409      1.054224
H      -1.646253      1.943701     -1.172949
H      -2.437449     -0.536707     -0.987109
H      -1.258607     -0.757758      1.614317
H      -1.062646     -1.672779      1.287338
