9
Extracted from Q-Chem output
N      -2.177406      0.679611      0.048355
C      -1.036204      0.211505      0.494867
O       1.424967     -1.357196      2.399456
C       0.009488     -0.227246      0.913747
C       1.248992     -0.732277      1.384349
C       2.391954     -0.422007      0.490765
N       3.278289     -0.184532     -0.197508
H      -2.215880      1.207513     -0.804473
H      -3.021836      0.560790      0.577914
