16
smiles: [C:1](/[C:2](=[N:3]\[H:13])[H:11])([H:8])([H:9])[H:10].[C:4](=[O:5])([O:6][C:7]([H:14])([H:15])[H:16])[H:12]
C       -2.52735100       0.93501600       1.16664100
C       -1.21059200       0.73557100       0.48012900
N       -0.67921900       1.47110700      -0.39776000
C        1.31885200      -2.27576100      -0.77765000
O        0.68682100      -2.00572000       0.20096500
O        2.17756900      -1.46808900      -1.39527000
C        2.33568300      -0.17296600      -0.81143100
H       -3.02802700       1.83852900       0.81567700
H       -3.18000800       0.07668900       0.98951200
H       -2.38175400       1.00750200       2.24735700
H       -0.64916100      -0.15401400       0.78060700
H        1.27778800      -3.23722000      -1.30713400
H       -1.27780100       2.27104900      -0.60875500
H        3.05331800       0.34947100      -1.43790700
H        1.38372800       0.35745000      -0.79783200
H        2.71042200      -0.25847000       0.20851700
