14
Extracted from Q-Chem output
C       1.405412     -0.625363      0.306593
O       1.458461      0.772665      0.554457
C       0.198929      0.193018      0.233067
C      -0.807625      0.179178      1.352194
C      -1.078824     -0.304146     -1.985239
C      -0.365814      0.592335     -1.111644
H       1.571974     -1.258107      1.174018
H       1.895092     -0.957282     -0.605799
H      -1.281097      1.158603      1.448294
H      -0.324762     -0.064845      2.297911
H      -1.589630     -0.557111      1.154055
H      -0.791403     -1.332410     -1.681155
H      -0.698986      1.633630     -1.133353
H       0.439145      0.547363     -1.909585
