13
Extracted from Q-Chem output
O      -0.024357     -1.767105      1.707811
C       0.421093     -1.060873      0.584932
C      -0.827457     -0.632664     -0.311188
C      -0.478590      0.620777     -0.916024
C      -0.185125      1.744080     -1.397866
C       1.138785      0.186097      0.844635
C       1.557645      1.331651      0.672921
H      -0.022203     -1.155739      2.449112
H       1.021211     -1.752883     -0.010706
H      -1.693326     -0.510520      0.340694
H      -1.040827     -1.383994     -1.075712
H      -0.573458      2.315834     -2.225807
H       0.683417      2.094355     -0.690500
