10
Extracted from Q-Chem output
N      -1.995503      0.062727     -0.076048
C      -0.722766      0.083926     -0.033561
N       0.082136     -1.038242      0.089294
C       1.391066     -0.642498      0.103813
N       1.513544      0.630964     -0.000079
N       0.220830      1.083565     -0.085679
H      -2.387319      0.991424     -0.167782
H      -0.288275     -1.966902      0.159884
H       2.221240     -1.324053      0.192998
H       0.045722      2.064923     -0.175232
