10
Extracted from Q-Chem output
N      -1.749924     -0.196821     -0.279347
C      -0.389067     -0.122655     -0.095166
N       0.452213     -1.129222     -0.145279
C       1.655680     -0.518285      0.028366
N       1.612667      0.777961      0.187607
N       0.279220      1.025335      0.103844
H      -2.306645      0.405239      0.304130
H      -2.078220     -1.148966     -0.277835
H       2.588656     -1.059928      0.042246
H      -0.064581      1.967343      0.131434
