11
Extracted from Q-Chem output
N       2.769187     -1.149407      0.573102
C       1.755048     -0.603538      0.220037
C       0.669303      0.087983     -0.087014
C      -0.574389     -0.191256      0.573852
C      -1.778725      0.387627      0.387152
N      -2.124569      1.415194     -0.516818
O      -1.233071      1.837426     -1.221956
H       3.067075     -2.006274      0.119809
H       0.745562      0.852279     -0.845816
H      -0.539227     -0.970406      1.330075
H      -2.626599      0.066531      0.976882
