15
Extracted from Q-Chem output
C      -2.791369     -0.267101      0.051448
C      -1.321517     -0.328532     -0.272523
O      -0.614098      0.507718      0.667702
C       0.685100      0.572469      0.554690
N       1.399401      0.003287     -0.307599
C       2.696745     -0.039416     -0.463737
H      -2.980159     -0.621385      1.065227
H      -3.165684      0.753431     -0.033911
H      -3.348951     -0.897569     -0.643120
H      -0.921869     -1.342204     -0.187076
H      -1.104727      0.039105     -1.278764
H       2.128667      1.221976      1.282934
H       3.240239     -0.907302     -0.100532
H       2.898231      1.040944      0.956662
H       3.146623      0.530817     -1.271733
