14
smiles: [C:1]1([H:7])([H:8])[C@@:2]2([H:9])[C:3]([H:10])([H:11])[O:4][C:5]([H:12])=[C:6]12.[H:13][H:14]
C        1.24853100       0.17167100      -0.58417600
C        0.59045700       0.83650600       0.61048200
C       -0.67798700       1.64953800       0.59594000
O       -1.75639100       0.65433200       0.61772000
C       -1.20883900      -0.44847000       0.04602600
C        0.12313100      -0.49251800       0.09455300
H        1.06818000       0.54763300      -1.58531200
H        2.26045000      -0.18228300      -0.41959900
H        1.17420400       0.82775100       1.52565100
H       -0.82373400       2.25844600      -0.30180800
H       -0.78967400       2.27457800       1.47927400
H       -1.92249300      -1.14528400      -0.37392100
H        0.36178200      -3.85662000      -1.00484500
H        0.36712600      -3.20193000      -0.65021900
