17
Extracted from Q-Chem output
C      -2.026695     -0.953794      0.177314
C      -1.024832     -0.899810     -0.690517
O      -0.370220      1.924608      0.502830
C       0.747390      1.650002     -0.311279
C       1.290704      0.237633     -0.208818
C       0.990714     -0.629450      0.973544
C       0.422720     -0.986867     -0.368439
H      -1.099332      1.367141      0.216657
H      -1.850376     -1.068085      1.241388
H      -3.057668     -0.896486     -0.150278
H      -1.258384     -0.805396     -1.749529
H       0.526160      1.876514     -1.363357
H       1.525498      2.346366      0.008488
H       2.284277      0.149220     -0.636399
H       0.315769     -0.212194      1.709596
H       1.775975     -1.252879      1.379444
H       0.912491     -1.808168     -0.883007
