17
Extracted from Q-Chem output
C      -1.931652     -0.561873      0.374938
C      -0.956354     -0.588251     -0.644551
O      -0.702286      1.319269     -0.558076
C       0.662193      1.567339     -0.370078
C       1.393984      0.241667     -0.207074
C       1.069243     -0.643123      0.956531
C       0.470679     -0.931622     -0.387345
H      -1.428004      0.748704      0.294924
H      -1.676499     -1.003284      1.331091
H      -2.974368     -0.615123      0.087872
H      -1.261736     -0.623470     -1.685114
H       1.058559      2.090110     -1.247439
H       0.823255      2.214485      0.499338
H       2.395955      0.182836     -0.614893
H       0.421362     -0.250016      1.729639
H       1.838957     -1.312649      1.316528
H       0.830035     -1.790920     -0.941498
