13
Extracted from Q-Chem output
C      -1.658357     -0.303357      0.066050
N      -1.129653      0.997735      0.480407
C      -0.578863      0.349001     -0.695818
C       0.824319     -0.193773     -0.715030
C       1.914202     -0.517434      1.405307
O       1.106197     -0.936083      0.492692
H      -1.399969     -1.170938      0.661741
H      -2.670805     -0.286934     -0.318169
H      -0.521783      0.884201      1.284814
H      -0.831364      0.846635     -1.627961
H       0.951712     -0.891682     -1.543606
H       2.344210      0.456268      1.038745
H       1.560929      0.612300     -0.795473
