18
Extracted from Q-Chem output
C      -2.843722      0.132738     -0.069646
C      -1.437144     -0.421978     -0.291505
C      -0.406095      0.114532      0.671800
C       1.764099     -0.769384      0.067581
C       2.502813      0.414414     -0.252182
C       0.255708      1.277785      0.414569
N       1.080142      2.061537      0.109770
H      -3.559172     -0.300747     -0.772734
H      -2.852608      1.216858     -0.197078
H      -3.191774     -0.084637      0.942775
H      -1.466010     -1.513701     -0.203503
H      -1.121009     -0.203146     -1.316325
H      -0.547484     -0.127184      1.722047
H       1.816267     -1.198167      1.056673
H       1.236360     -1.311157     -0.703111
H       3.164558      0.851766      0.478993
H       2.989381     -0.859865     -0.332571
H       2.578723      0.741461     -1.277369
