13
Extracted from Q-Chem output
N       2.304430     -0.457683      0.244135
C       1.183056      0.033725     -0.071163
O       1.143000      1.120788     -0.867078
C      -0.159710     -0.439832      0.330953
C      -1.319046     -0.332614     -0.626449
C      -1.271820      0.548426      0.572327
H       2.198556     -1.267916      0.843018
H       2.060891      1.340700     -1.065719
H      -0.134632     -1.313144      0.969310
H      -1.119673      0.116779     -1.589197
H      -2.018655     -1.157320     -0.638088
H      -1.940393      0.339722      1.396374
H      -1.039807      1.592992      0.418499
