17
smiles: [C:1]([C:2]1=[C:7]2[C@@:5]([H:14])([C:4]([H:12])([H:13])[O:3]1)[C:6]2([H:15])[H:16])([H:8])([H:9])[H:10].[H:11][H:17]
C       -2.15955200       0.05033800       0.03212800
C       -0.72544700       0.40931500      -0.08228700
O       -0.44666300       1.73789700       0.00929700
C        0.95772900       1.80622800       0.41547900
C        1.56335000       0.51622800      -0.07898900
C        1.44439300      -0.83299600       0.60554000
C        0.36248200      -0.35226500      -0.27609500
H       -2.71857200       0.46561600      -0.80983800
H       -2.58592000       0.46885700       0.94574500
H       -2.27591700      -1.03138500       0.02702800
H       -0.86017100      -3.30105000      -1.81439600
H        1.39396300       2.68416800      -0.05668700
H        0.97201700       1.93712000       1.50224300
H        2.28004900       0.57208900      -0.89220000
H        1.23902900      -0.87957200       1.66987600
H        2.12501100      -1.60137300       0.25442200
H       -0.57238100      -2.66849600      -1.54709800
