17
Extracted from Q-Chem output
C      -2.117911     -0.486118      0.219921
C      -0.748467     -0.048586     -0.141772
O      -0.541597      1.233371     -0.124877
C       0.886667      1.498042     -0.295330
C       1.549797      0.150552     -0.192375
C       1.339462     -0.576149      1.094990
C       0.458900     -0.898704     -0.101104
H      -2.876996      0.150326     -0.229289
H      -2.193857     -0.406034      1.309789
H      -2.262719     -1.524648     -0.062912
H      -0.858052     -0.692296     -1.854240
H       1.002886      1.960255     -1.276058
H       1.145293      2.215203      0.484417
H       2.431467     -0.014786     -0.798856
H       0.959790     -0.007053      1.941078
H       2.050975     -1.344681      1.368567
H      -0.211001     -1.220032     -1.357785
