13
smiles: [C:1]([O:2][C@:3]1([H:10])/[C:4](=[N:6]/[H:12])[O:5]1)([H:7])([H:8])[H:9].[H:11][H:13]
C        2.09498600       0.56252300       0.17000100
O        0.71963100       0.69794100      -0.16160600
C        0.09855400      -0.46896400      -0.39775300
C       -1.30025300      -0.60673400      -0.13406200
O       -0.50817100      -1.16828500       0.78906900
N       -2.49609000      -0.41257100      -0.41587100
H        2.62554000      -0.00690600      -0.59981500
H        2.20986400       0.06784200       1.13730700
H        2.50501000       1.56789500       0.22240400
H        0.62704000      -1.17398100      -1.03810300
H       -1.65426200       1.00856600      -3.37935200
H       -3.11172600      -0.80678700       0.29217400
H       -1.97926000       0.72991500      -2.77016200
