14
Extracted from Q-Chem output
O      -1.417557      0.283021     -1.312282
C      -1.217384     -0.225321      0.003111
C      -0.195968     -1.327481      0.115603
N       0.863013     -0.252266      0.592359
C      -0.295514      0.658784      0.862346
C       1.734061      0.123853     -0.503270
O       1.720902      1.189575     -1.027478
H      -2.191053      0.851447     -1.317796
H      -2.190460     -0.441125      0.456331
H       1.391699     -0.557876      1.403120
H       0.144540     -1.765036     -0.827911
H      -0.514707      0.654438      1.927333
H      -0.105462      1.664154      0.493264
H       2.372108     -0.720672     -0.804284
