14
Extracted from Q-Chem output
O      -1.626323      0.070881     -1.199103
C      -1.241855     -0.261810      0.122863
C      -0.292886     -1.436169      0.120409
N       0.976405     -0.077033      0.534073
C      -0.239625      0.730631      0.721709
C       1.956425      0.234049     -0.375692
O       2.113684      1.325199     -0.854347
H      -2.287441      0.766556     -1.173146
H      -2.128492     -0.438783      0.741275
H       0.783126     -1.114134      0.938127
H      -0.023855     -1.725817     -0.899424
H      -0.395484      0.952992      1.777526
H      -0.163744      1.655370      0.152861
H       2.606858     -0.627228     -0.603404
