15
smiles: [C:2]1([H:9])=[C:7]([H:15])[C@:4]2([C:3]1([H:10])[H:11])[C:5]([H:12])([H:13])[O:6]2.[O:1]([H:8])[H:14]
O       -1.55018000       2.25827600      -1.03484300
C       -0.32135600      -1.90947100       0.74878700
C       -0.86767500      -0.87946600      -0.22368500
C        0.52995900      -0.24813700      -0.08180100
C        1.34210900       0.48113100      -1.04450000
O        0.76936600       1.12714800       0.08911500
C        0.86667600      -1.32277500       0.89792000
H       -0.76483100       2.05186300      -0.52650700
H       -0.75339500      -2.81607400       1.15154000
H       -1.66663700      -0.24760000       0.16663800
H       -1.13601500      -1.23869700      -1.21939400
H        2.42384300       0.38049700      -1.02236300
H        0.91606100       0.76479100      -2.00301800
H       -1.74440300       3.17647100      -0.84181300
H        1.75184500      -1.54310100       1.47962600
