11
Extracted from Q-Chem output
N      -1.202810      0.770194      0.607312
C      -0.328577     -0.030490     -0.178321
O      -0.916108     -0.461255     -1.351185
C       0.649221     -0.971204      0.458884
C       1.160229      0.134709     -0.300571
O       1.443607      0.031297      1.097577
H      -0.823070      0.885135      1.537272
H      -1.314926      1.686757      0.191930
H       0.870514     -2.024944      0.465027
H       1.912846      0.213215     -1.066549
H      -1.838561     -0.635644     -1.142672
