14
Extracted from Q-Chem output
C       1.784874     -0.127088     -0.759011
C       0.584959      0.365313      0.594132
C      -0.781733      0.917526      0.195514
C      -1.491905     -0.312554     -0.368524
O      -0.470794     -1.061859     -0.995779
C       0.701435     -0.932993     -0.228865
H       1.370415      1.067254      0.104731
H       2.668322     -0.340260     -0.136319
H       0.818977      0.239421      1.645499
H      -0.670406      1.674506     -0.581021
H      -1.296562      1.361711      1.047634
H      -2.248369     -0.075767     -1.116442
H      -1.965107     -0.894048      0.435437
H       0.902209     -1.828427      0.358939
