17
Extracted from Q-Chem output
C       2.439198      0.399974     -0.044914
C       1.276198     -0.574941      0.079830
C       0.046345      0.067627      0.634594
N      -1.132773     -0.473572      0.404574
C      -2.466840      0.070173      0.443544
C      -1.865678     -0.622482     -0.730163
H       2.189260      1.210629     -0.730923
H       3.329527     -0.104476     -0.422046
H       2.692217      0.842025      0.921594
H       1.026777     -1.006273     -0.894450
H       1.564634     -1.413087      0.725953
H      -0.387317      1.146500     -0.940976
H       0.124031      0.694233      1.518542
H      -3.137015     -0.407113      1.152108
H      -2.544614      1.157432      0.377339
H      -2.148116     -1.549074     -1.207960
H      -0.990441      0.657288     -1.337446
