15
Extracted from Q-Chem output
C       2.439256     -0.851719      0.173537
C       1.184466     -0.052626      0.269049
N       0.261875     -0.171296     -0.582489
C      -0.963775      0.599432     -0.473408
C      -2.163050     -0.346366     -0.415331
C      -1.005375      1.547289      0.659488
N      -1.019673      2.270505      1.550322
H       2.557306     -1.468762      1.067713
H       2.421988     -1.488399     -0.708943
H       3.305845     -0.187656      0.129035
H       1.106078      0.639951      1.116908
H      -1.036848      1.200734     -1.384447
H      -2.127915     -1.011896     -1.276646
H      -2.126294     -0.947220      0.493723
H      -3.098566      0.212779     -0.428019
