15
Extracted from Q-Chem output
C       1.732017     -0.342258      0.878355
C       0.532189     -0.077453      0.028156
C       0.335097     -0.730780     -1.193267
C      -0.800959     -0.057754      0.545418
O      -1.292038     -0.816130      1.484101
C      -1.251303      1.240139     -0.035343
O       0.060028      1.710162     -0.166107
H       2.589308     -0.593393      0.255641
H       1.542614     -1.162039      1.574227
H       1.957447      0.553591      1.455218
H      -0.500853     -0.505697     -1.836822
H       1.044439     -1.482704     -1.512996
H      -2.225817     -0.624130      1.623961
H      -1.804817      1.148214     -0.984860
H      -1.902160      1.794351      0.666176
