18
smiles: [C:1]([H:7])([H:8])([H:9])[H:17].[C:2](=[C:3]([C:4]([H:13])([H:14])[H:15])[H:12])([H:10])[H:11].[O:5]=[C:6]([H:16])[H:18]
C        0.02689100      -1.89303200       1.52493700
C       -1.55371600       0.30701600      -1.56523400
C       -0.85199900       1.29741400      -1.03665600
C       -0.85206900       1.67550700       0.41006900
O        2.55633600       0.57594900       0.06181900
C        2.32446800      -0.40159700      -0.58672900
H        0.73456300      -2.69015100       1.30262600
H        0.55053100      -1.06508900       2.00059200
H       -0.74405800      -2.26742000       2.19669200
H       -2.19861300      -0.31822200      -0.95597300
H       -1.50979100       0.08356000      -2.62427200
H       -0.21912900       1.89661600      -1.68749000
H       -1.17982100       2.70994000       0.54248700
H        0.15413000       1.60656900       0.83180000
H       -1.51137100       1.02994600       0.99196400
H        3.07956300      -1.19684600      -0.73796800
H       -0.43292000      -1.54671100       0.60059000
H        1.34258900      -0.56251900      -1.07204400
