18
Extracted from Q-Chem output
C      -0.170128     -2.023538      0.583288
C      -1.153446     -0.217207     -0.372621
C      -0.400920      0.870623     -0.826526
C      -0.588439      2.212725     -0.179108
O       1.373083      0.677997     -0.497084
C       1.774055     -0.280805      0.278498
H       0.046829     -2.603058     -0.308820
H       0.445406     -2.372299      1.415713
H      -1.209693     -2.115883      0.868622
H      -1.768114     -0.078326      0.507658
H      -1.506376     -0.943428     -1.090627
H      -0.228536      0.901267     -1.895878
H      -1.524010      2.664728     -0.519643
H       0.232597      2.882895     -0.430154
H      -0.636463      2.113687      0.907241
H       2.028832     -0.011090      1.315041
H       0.749795     -0.989239      0.478457
H       2.450347     -1.020847     -0.170828
