17
Extracted from Q-Chem output
C      -1.675559      0.538551     -0.183312
C      -1.084592     -0.634653     -0.546109
C       0.379322     -0.878277     -0.797871
C       1.320770      0.336414     -0.915534
C       1.306413      0.838073      0.511044
C       0.823343     -0.074494      1.390968
C       0.499323     -1.212271      0.647588
H      -2.747518      0.565367     -0.033724
H      -1.157818      0.891964      1.556286
H      -1.197695      1.494982     -0.347010
H      -1.688840     -1.535439     -0.546803
H       0.560155     -1.694843     -1.493125
H       0.973566      1.119723     -1.594816
H       2.298037      0.008396     -1.282348
H       1.428730      1.894320      0.735442
H      -0.432065      0.626229      1.952338
H       0.358669     -2.214302      1.035091
