14
smiles: [H:8][H:10].[O:1]([C:2]1=[C:3]([H:9])[C@:4]([O:5][H:12])([H:11])[C:6]1([H:13])[H:14])[H:7]
O        2.12273300       0.96706500      -0.57163500
C        0.88682900       0.45559400      -0.47528400
C       -0.32692400       1.00170900      -0.53396500
C       -0.99177000      -0.32037700      -0.21484700
O       -1.80594700      -0.91637600      -1.20350300
C        0.42768800      -0.94965300      -0.19396700
H        2.76609800       0.25679800      -0.53474800
H        0.13363100       0.46253000       3.08706900
H       -0.70312100       2.00166000      -0.69513900
H        0.14108200       0.81547600       2.43149000
H       -1.49187800      -0.35910700       0.76031300
H       -2.57493900      -0.36057200      -1.33997300
H        0.57589600      -1.66657200      -1.00286100
H        0.74533000      -1.38447900       0.75689800
