14
Extracted from Q-Chem output
O       1.929610      1.057433     -0.140984
C       1.292223     -0.146215      0.253725
C      -0.152322      0.163146      0.582083
C      -0.981185      0.549362     -0.621362
O      -1.732058     -0.694753     -0.800387
C      -0.960150     -1.112535      0.865628
H       2.852252      0.878261     -0.324642
H       1.772486     -0.587994      1.134590
H       1.330923     -0.897258     -0.548593
H      -0.186857      0.916289      1.374634
H      -1.729623      1.310873     -0.413952
H      -0.429306      0.815534     -1.525327
H      -1.866622     -0.814676      1.412731
H      -1.233404     -1.304596     -1.350085
