10
Extracted from Q-Chem output
N      -2.024533     -0.066778     -0.059618
C      -0.786449     -0.207901     -0.502040
N       1.710195     -1.174832     -0.913792
C       2.013118     -0.626914      0.148049
N       1.376770      0.627905      0.192526
N       0.069550      0.695073      0.059989
H      -2.300796      0.486524      0.743280
H      -2.752834     -0.583843     -0.518986
H       2.801208     -0.848846      0.876920
H      -0.231456      1.662632      0.035124
