13
Extracted from Q-Chem output
O       2.083063      1.484350     -1.178167
C       1.681060      0.850416     -0.244939
C       0.743235     -0.321871     -0.410263
O       0.469350     -1.006791      0.815369
C      -0.938043     -0.930037      0.648714
C      -1.485997      0.938372      0.160899
C      -0.752853      0.011481     -0.634577
H       1.962540      1.090589      0.800415
H       1.144491     -1.000208     -1.169442
H      -1.416359     -1.865802      0.359068
H      -1.461103     -0.526845      1.526727
H      -0.810697      1.409006      0.895793
H      -1.207042     -0.355208     -1.549958
