14
smiles: [C:1]([H:7])([H:8])([H:9])[H:10].[C:2]1=[O+:6][C:5]([H:13])([H:14])[C@@:4]1([C-:3][H:11])[H:12]
C       -2.10251400       0.98770500       0.60975400
C        0.02922700      -1.46908100      -0.25733700
C        0.57269500       0.75185100      -1.30275900
C        1.18293600      -0.45383600      -0.85392200
C        1.72470700      -0.57921000       0.56662700
O        0.63665500      -1.49915500       0.88474700
H       -1.88065800       0.78780400       1.65702500
H       -3.00081600       1.59922100       0.53991100
H       -2.26231900       0.04590500       0.08702000
H       -1.26574200       1.51643700       0.15597900
H        0.15688300       0.54123100      -2.30367100
H        1.67756600      -1.10121800      -1.59110700
H        1.63653200       0.32282200       1.16874400
H        2.68029100      -1.08165700       0.71210100
