14
Extracted from Q-Chem output
C      -1.686331      0.884516      0.383733
C       0.012440     -1.671198     -0.138379
C       0.147459      0.820131     -1.109298
C       0.781083     -0.437036     -0.670560
C       1.574913     -0.538926      0.634779
O       0.760067     -1.707610      0.946241
H      -1.445008      0.778539      1.439669
H      -2.410459      1.678902      0.215556
H      -2.031711     -0.056321     -0.029459
H      -0.712235      1.333780     -0.096614
H      -0.580664      0.580945     -1.898327
H       1.344501     -0.751638     -1.560983
H       1.398487      0.253115      1.361811
H       2.632899     -0.798382      0.594943
