17
smiles: [C:1]([O:2][C:3]([C:4](=[O:5])[H:13])([H:11])[H:12])([H:8])([H:9])[H:10].[C:6](=[O:7])([H:15])[H:16].[H:14][H:17]
C        2.62374400       0.76344100      -0.57602200
O        2.08282500      -0.22870200       0.25878500
C        0.69827000      -0.36067400       0.12340300
C        0.22341300      -1.45752000       1.04572500
O       -0.93033500      -1.75624900       1.16848000
C       -2.79645000      -0.69863400      -0.61982800
O       -2.20588900      -0.08945600      -1.46244300
H        3.69798900       0.78666200      -0.40104100
H        2.20259200       1.75086300      -0.34824800
H        2.43742400       0.53983700      -1.63415700
H        0.16752500       0.56723100       0.38200200
H        0.41101000      -0.62614500      -0.90525800
H        1.03048800      -1.97344500       1.60393400
H       -1.73815100       2.66811700       0.18852400
H       -3.15746600      -0.21560900       0.30838400
H       -3.01412500      -1.77910000      -0.72290700
H       -1.85178600       2.14698300      -0.33096000
