11
Extracted from Q-Chem output
C      -1.811078     -0.467575      0.127409
N      -0.512329      0.081725     -0.186058
C       2.182606      2.136231      0.079672
N       2.012832      0.986295     -0.037636
C       1.700690     -0.357384     -0.178044
N       0.499759     -0.775253     -0.224971
H      -1.989500     -1.334580     -0.506520
H      -1.901822     -0.771244      1.175610
H      -2.568022      0.285386     -0.090296
H      -0.312634      1.017889      0.145155
H       2.523711     -1.050335     -0.253676
