11
Extracted from Q-Chem output
C      -1.683930     -0.396850      0.049439
N      -0.326258      0.045561     -0.228319
C       1.029833      1.709188     -0.142239
N       1.968925      0.937001     -0.058310
C       1.820636     -0.419631     -0.098408
N       0.583865     -0.843648     -0.115336
H      -1.982382     -1.145729     -0.686339
H      -1.773095     -0.828413      1.048979
H      -2.348314      0.461655     -0.037419
H       0.010512      1.533144      0.355656
H       2.664060     -1.087328     -0.087119
