17
Extracted from Q-Chem output
C       1.843494      0.503696     -0.856466
C       0.285429      0.105616      0.133955
C       0.121340     -1.377474      0.364888
C      -1.383023     -1.131037      0.017884
C      -1.068357      0.307252     -0.490847
C      -1.153550      1.389076      0.585691
O       0.222401      1.078007      1.090922
H       2.453877      0.333023      0.024588
H       2.097661     -0.203241     -1.644735
H       1.934930      1.544731     -1.167685
H       0.651057     -1.996527     -0.358228
H       0.371176     -1.703509      1.373826
H      -2.022258     -1.152768      0.906872
H      -1.797813     -1.823363     -0.715398
H       0.526142      0.484593     -1.048799
H      -1.890939      1.228901      1.378574
H      -1.174043      2.434433      0.268003
