13
smiles: [C:3](=[O:4])([H:8])[H:9].[C:5]1([H:10])=[C:7]([H:13])[C:6]1([H:11])[H:12].[O+:1]#[C-:2]
O        0.97214000       2.89447100       0.68247500
C        1.36867200       1.84340300       0.67350900
C        2.13132500      -1.18935100      -0.50336300
O        1.87527500      -1.09172500      -1.66731700
C       -1.14714200      -0.11217900      -0.66442900
C       -1.51641600      -0.33891300       0.77195900
C       -2.07479300       0.65054300      -0.20823800
H        1.34157000      -1.32004300       0.26116100
H        3.17218500      -1.15597600      -0.12769400
H       -0.51163700      -0.41894100      -1.47585000
H       -0.84673500       0.00299500       1.56004100
H       -2.10307500      -1.21526300       1.04469400
H       -2.78581200       1.44240000      -0.36214000
