12
Extracted from Q-Chem output
O       2.442389     -0.276895     -0.372396
C       1.252006     -0.323863     -0.183781
N       0.487147      0.930566      0.289892
C      -0.928758      0.630382     -0.089777
C      -0.992625     -0.795221      0.386336
N       0.312247     -1.239245     -0.161037
H       0.911778      1.771888     -0.086474
H      -0.946458      0.793626     -1.185554
H      -1.614894      1.316154      0.403520
H       0.536417      0.912514      1.317099
H      -1.793913     -1.349567     -0.103829
H       0.574595     -2.204503     -0.261287
