19
smiles: [C:1]([H:8])([H:9])([H:10])[H:11].[C:2]1(=[O:3])[C:4]([H:12])([H:13])[C:5]([H:14])([H:15])[C:6]([H:16])([H:17])[C:7]1([H:18])[H:19]
C        3.62168400       0.14741800      -0.14927200
C       -0.32291100      -0.98231700       0.22059800
O        0.53606100      -1.80792000       0.36825100
C       -0.09929100       0.51518200       0.05962700
C       -1.48745100       1.13581100       0.20754300
C       -2.43713700       0.05266700      -0.32801000
C       -1.81981500      -1.25540500       0.16426000
H        3.53975500       0.94083600       0.59204000
H        3.44871400       0.55935700      -1.14239200
H        4.61802800      -0.28989600      -0.10631200
H        2.87898100      -0.62108300       0.05924900
H        0.65300500       0.87058900       0.76296500
H        0.29943200       0.67040200      -0.94851800
H       -1.70105000       1.32384400       1.26363800
H       -1.59117500       2.08479600      -0.31835100
H       -2.44107900       0.07409400      -1.42161900
H       -3.46620900       0.19369000       0.00235700
H       -2.03082000      -2.13386700      -0.44462800
H       -2.13857300      -1.48494000       1.18666200
