19
Extracted from Q-Chem output
C       1.578303     -0.500987     -0.947704
C       0.631857     -0.192291      0.766128
O       1.569650     -0.479812      1.654820
C       0.132638      1.230516      0.603187
C      -1.101837      1.160359     -0.297617
C      -1.584030     -0.317710     -0.264020
C      -0.590728     -1.079279      0.619378
H       2.382554      0.200905     -1.178388
H       0.714711     -0.254852     -1.557884
H       1.868421     -1.533343     -1.157243
H       1.866128     -0.583257      0.382362
H      -0.126360      1.524392      1.625957
H       0.911678      1.912998      0.267095
H      -1.880082      1.845079      0.038469
H      -0.852047      1.456806     -1.317947
H      -1.608860     -0.735827     -1.271737
H      -2.598620     -0.397037      0.125883
H      -0.340358     -2.080687      0.272562
H      -0.954792     -1.182934      1.646634
