14
Extracted from Q-Chem output
O       3.153509      0.232260      0.369294
C       2.143374     -0.071112     -0.199941
C      -0.332838      0.037872      0.018535
C      -1.334844     -0.352985     -0.979852
N      -1.693215     -0.295872      0.449307
C      -1.164171      1.069043      0.646388
C       0.918563     -0.631211      0.481647
H       2.058349      0.041774     -1.301560
H      -1.752440      0.402064     -1.643465
H      -1.305358     -1.361248     -1.378989
H      -1.579182      1.870261      0.037683
H      -0.981976      1.315954      1.686535
H       1.038071     -0.541781      1.562267
H       0.863171     -1.697268      0.231164
