13
smiles: [N:4](=[C:5](/[O:6][H:7])[H:13])\[H:12].[O:1]1[C:2]([H:8])([H:9])[C:3]1([H:10])[H:11]
O       -1.22923400       0.06536300       0.90688800
C       -1.60343000      -0.73481000      -0.19913600
C       -1.60430500       0.72086700      -0.28988300
N        1.57734200      -0.10227400      -0.75876100
C        2.13168500       0.01570400       0.36381000
O        1.42758800       0.13228300       1.49528700
H        0.49359800       0.10475200       1.24896600
H       -2.54512100      -1.26522100      -0.09175600
H       -0.79667200      -1.29865500      -0.65834200
H       -2.54660700       1.25947400      -0.24938900
H       -0.79832700       1.22472200      -0.81557200
H        2.26080000      -0.17895400      -1.50247500
H        3.20222500       0.04001500       0.57275600
