15
Extracted from Q-Chem output
C       1.834871     -0.854024      0.385131
N       1.284328      0.405332     -0.887184
C       0.744250      1.582517     -0.548760
C      -0.572933      1.401131     -0.159384
C      -0.791544      0.028109     -0.211047
C      -2.000007     -0.765868      0.160282
N       0.313113     -0.571904     -0.676644
H       2.455967     -0.107506      0.869061
H       2.397279     -1.519010     -0.253117
H       1.227148     -1.385952      1.111231
H       1.317860      2.493505     -0.630510
H      -1.295874      2.165525      0.082834
H      -2.913675     -0.281326     -0.186421
H      -2.081173     -0.884761      1.244092
H      -1.947884     -1.758086     -0.286964
