15
smiles: [C:1]([C:2]([C:3]([C:4](=[O:5])[H:13])([H:12])[H:14])([H:9])[H:10])([H:6])([H:7])[H:8].[H:11][H:15]
C       -1.48463900       0.21922600      -0.59365600
C       -0.75334700       0.91068400       0.55021100
C        0.59392100       0.26062700       0.87074200
C        1.58190700       0.43097900      -0.24961300
O        2.21755700      -0.45359600      -0.75271100
H       -0.90138800       0.24403900      -1.51743900
H       -1.67575400      -0.83013000      -0.35800700
H       -2.44431300       0.69762100      -0.79471300
H       -0.59572900       1.96700600       0.30768800
H       -1.37254800       0.89679800       1.44997000
H        0.47603700      -3.38311100      -0.63220700
H        0.48841300      -0.80465000       1.08568300
H        1.70061600       1.47833000      -0.60893100
H        1.03241000       0.74113900       1.75321500
H        0.89639100      -2.77001300      -0.67418900
