13
Extracted from Q-Chem output
C      -1.117922     -0.316416      0.146201
C      -1.421313      1.167027     -0.006953
C       0.006887      0.839731     -0.203208
N       1.171608      1.058810      0.426007
C       1.808150     -0.085503      0.279307
C       0.984729     -1.065745     -0.353044
N      -0.071523     -0.332522     -1.000910
H      -1.822559     -1.135952      0.182491
H       0.140869     -1.122451      0.701176
H      -1.983812      1.489870     -0.884107
H      -1.659011      1.712402      0.899897
H       2.754061     -0.268736      0.773732
H       1.335433     -2.002338     -0.765574
