10
Extracted from Q-Chem output
O      -1.294069     -0.188381      1.381546
C      -0.890501      0.422223      0.193508
C       0.364107     -0.260030     -0.393300
C       0.057569     -0.984817     -1.416691
C       1.689628      0.007297      0.228773
O       1.850018      0.869091      1.044570
H      -1.699862     -1.034045      1.178831
H      -0.579215      1.438942      0.437319
H      -1.690320      0.470609     -0.549596
H       2.518719     -0.629572     -0.115822
