10
Extracted from Q-Chem output
O      -1.274367     -0.254203      1.444643
C      -0.979112      0.455674      0.267438
C       0.112152     -0.166267     -0.527367
C       0.722176     -0.672579     -1.510061
C       1.657807     -0.096320      0.107741
O       1.960566      0.965839      0.536369
H      -1.614752     -1.119646      1.207426
H      -0.668305      1.455697      0.568976
H      -1.849640      0.551686     -0.389194
H       2.205916     -1.025557      0.289411
