16
Extracted from Q-Chem output
C      -2.108370     -0.257613     -0.124503
C      -0.604940     -0.487925     -0.054545
C       0.184627      0.819176      0.011877
C       1.685644      0.623042     -0.007983
O       2.027899     -0.003406     -1.232215
C      -0.026172     -1.948167      2.012030
N      -0.291872     -1.302112      1.082177
H      -2.351227      0.318681     -1.018013
H      -2.454639      0.294117      0.751100
H      -2.643568     -1.205860     -0.166976
H      -0.274011     -1.045065     -0.933472
H      -0.104492      1.427471     -0.848985
H      -0.097654      1.367935      0.914621
H       1.993074      0.008553      0.846138
H       2.178837      1.598356      0.081249
H       2.940092     -0.291879     -1.193222
