16
Extracted from Q-Chem output
C      -2.078625     -0.303176     -0.148561
C      -0.579818     -0.461981     -0.036809
C       0.205845      0.819592      0.072613
C       1.708204      0.638392     -0.005709
O       2.015988      0.023961     -1.245239
C       0.140046     -1.675329      1.131803
N      -0.668715     -1.160497      1.814421
H      -2.289107      0.149797     -1.121622
H      -2.486474      0.335328      0.632829
H      -2.581271     -1.267855     -0.109947
H      -0.207591     -1.068313     -0.857928
H      -0.108358      1.441352     -0.774037
H      -0.062922      1.353671      0.986064
H       2.051841      0.024335      0.831661
H       2.194590      1.618025      0.064913
H       2.795378     -0.521429     -1.142612
