13
Extracted from Q-Chem output
C      -1.726005      0.432080      0.209222
C      -0.598543     -0.358522     -0.339241
C      -0.295026     -1.216234     -1.282939
C       0.939260     -0.412709     -1.070748
C       0.984258      0.270013      0.530806
N       1.950042     -0.603328     -0.090830
H      -1.693750      1.463512     -0.149035
H      -1.723894      0.452927      1.302114
H      -2.655773     -0.017528     -0.139976
H       1.205219      0.335877     -1.816295
H       0.593133     -0.042488      1.489913
H       1.233806      1.324507      0.469636
H       1.870550     -1.535459      0.303072
