10
Extracted from Q-Chem output
O      -1.642999     -1.002968      0.261080
C      -0.470738     -0.543938     -0.330643
C      -0.320384      0.955402     -0.487408
N       0.811262      1.360283     -0.067658
C       1.421238      0.165400      0.442108
N       0.755653     -0.912464      0.364232
H      -1.596075     -0.830379      1.204866
H      -1.054018      1.612902     -0.941834
H       2.410947      0.229260      0.878711
H      -0.427797     -0.992390     -1.332043
