12
Extracted from Q-Chem output
C      -1.883756     -0.582498      0.285786
C      -0.806155      0.303323     -0.156261
C      -0.154279      1.375068     -0.357574
N       2.317237      0.432351      0.391825
C       1.582430     -0.326096     -0.299910
N       0.437677      0.144378     -0.968526
H      -2.673341     -0.009902      0.770623
H      -1.503574     -1.325627      0.989789
H      -2.298610     -1.113584     -0.573550
H       0.054077      2.426207     -0.339720
H       3.135891     -0.061871      0.733154
H       1.791130     -1.379676     -0.510784
