15
Extracted from Q-Chem output
C       2.292127      0.475248      0.086807
O       0.892966      0.509398     -0.001128
C       0.305909     -0.754021      0.105873
C      -1.193323     -0.688739     -0.187043
C      -1.929068      0.608750      0.329119
N      -1.697024     -0.073202     -1.272388
H       2.727620     -0.121132     -0.724859
H       2.627877      0.057592      1.045428
H       2.650084      1.500444      0.003297
H       0.462301     -1.173926      1.112364
H       0.752202     -1.454409     -0.615796
H      -1.700008     -1.585205      0.213203
H      -1.171023      1.211557      0.822024
H      -2.808467      0.331091      0.899094
H      -2.250307      1.230390     -0.545751
