9
Extracted from Q-Chem output
N       1.743501     -0.368079      0.175433
C       0.519243     -0.894154      0.036586
C      -0.819468      1.218494      0.332430
O      -1.820878      0.497524      0.102649
N      -2.281999     -0.581748     -0.140584
N      -0.372677     -1.614879     -0.161688
H       2.457373     -1.021384      0.454215
H       1.778151      0.534888      0.612048
H      -1.155663      2.253289      0.466214
