19
Extracted from Q-Chem output
C       3.045943      0.423953      0.683077
C       2.004641     -0.199452     -0.157061
O       0.795590     -0.166661      0.329087
C      -0.214446     -0.907547     -0.380632
C      -1.464207     -0.182142      0.103411
C      -2.672081     -0.455086     -0.790022
C      -0.937067      1.208240      0.155879
H       4.028687      0.317388      0.225218
H       2.837629      1.501629      0.799362
H       3.073053     -0.004925      1.687025
H       2.107079     -0.244483     -1.239606
H      -2.491154     -0.090289     -1.804246
H      -0.080550     -0.748973     -1.456426
H      -0.087974     -1.971798     -0.154335
H      -1.686796     -0.521471      1.119238
H      -2.900041     -1.524032     -0.848862
H      -3.555046      0.056771     -0.406466
H      -1.109155      1.830202      1.024063
H      -0.789903      1.727574     -0.787840
