11
Extracted from Q-Chem output
N       2.881494     -0.358452      0.399436
C       1.683624     -0.614840      0.228434
C       0.439520     -0.850577     -0.101755
N      -0.759647     -0.922028      0.398104
C      -1.707847     -0.071601      0.232284
C      -1.486410      1.157257     -0.532944
O      -0.392219      1.458670     -0.954770
H       3.144710      0.544443      0.016770
H       1.247707     -1.829162      0.393228
H      -2.684418     -0.298959      0.644943
H      -2.368639      1.794284     -0.723891
