12
Extracted from Q-Chem output
C      -1.871584      0.049130     -0.451893
C      -0.569923      0.187184      0.315245
C       0.649701     -0.159479     -0.502966
O       0.610691     -0.493983     -1.658975
C       1.925234     -0.062748      0.208560
C       2.957818      0.019687      0.810068
H      -2.716795      0.315102      0.183606
H      -2.012006     -0.973620     -0.802239
H      -1.880481      0.696676     -1.328665
H      -0.552846     -0.448697      1.206822
H      -0.424839      1.206286      0.690093
H       3.885029      0.085782      1.330344
