12
Extracted from Q-Chem output
C      -1.124704      0.793400      0.134057
C      -0.914427     -0.578002      0.216529
C       0.918831     -1.237508     -0.040190
O       0.931183     -2.405723      0.059466
C       1.750669     -0.143277     -0.279405
C       1.463725      1.098978     -0.339008
H      -1.253807      1.375982      1.039360
H      -1.562850      1.219925     -0.761427
H       0.267327      1.271236     -0.147181
H      -1.273310     -1.200647     -0.595695
H      -0.967758     -1.047076      1.192845
H       2.044153      1.990404     -0.517904
