15
Extracted from Q-Chem output
C      -1.251278      0.238593     -1.536044
C      -1.157227     -0.416131      2.036209
C      -0.116799      0.113776     -0.873036
C       0.830158     -1.046217     -0.558285
C       1.534237     -0.095934      0.416458
O       2.004565      0.995019     -0.347778
C       0.635126      1.017751      0.055566
H      -1.666129     -0.583699     -2.106450
H      -1.805496      1.169976     -1.523840
H      -1.043693      0.579547      2.511621
H      -2.074467     -0.289485      1.427532
H       0.317841     -1.873565     -0.068290
H       1.460377     -1.405851     -1.371333
H       2.021799     -0.316199      1.355312
H       0.300017      1.886798      0.606856
