15
Extracted from Q-Chem output
C       1.796233     -0.037263      0.221540
C       0.545105     -0.301255     -0.612432
C      -1.063481     -0.024274      0.057283
N      -1.319722      1.176087      0.471010
O      -0.338012      2.116100      0.033943
C      -1.789757     -1.198507      0.100619
H       1.698788      0.909894      0.747012
H       1.984111     -0.830801      0.947086
H       2.658639      0.021233     -0.443920
H       0.398567      0.511481     -1.322017
H       0.547980     -1.247690     -1.151629
H      -0.717452      2.940475      0.338451
H      -2.825031     -1.193096      0.412492
H      -1.344129     -2.124920     -0.224368
H      -0.135500     -0.773270      0.447138
