8
Extracted from Q-Chem output
O       0.327497     -1.938055     -0.332282
C       0.251222     -0.755668     -0.131964
C       1.462290      0.107584     -0.047124
C       1.495074      1.387431      0.167037
C      -1.020177     -0.074907      0.041816
C      -2.057136      0.504876      0.184996
H       2.439989     -0.361904     -0.170663
H      -2.984142      1.015496      0.309353
