8
Extracted from Q-Chem output
O       0.303915     -1.822368     -0.497838
C       0.142008     -0.672439     -0.182769
C       1.263696      0.231066      0.051973
C       2.209881      1.025042      0.257623
C      -1.154405     -0.050677     -0.000299
C      -2.216282      0.479098      0.153517
H       2.592808     -0.086157     -0.049887
H      -3.167158      0.942385      0.285944
