18
Extracted from Q-Chem output
C      -2.449400     -0.176242     -1.050348
C      -1.432249      0.038797      0.062258
C      -0.001201     -0.130164     -0.428763
C       1.067629     -0.016960      0.642847
C       2.492303     -0.212002      0.178718
C       1.045772      1.793268      0.976802
N       0.853525      1.233646      2.002301
H      -3.468482     -0.047693     -0.682951
H      -2.297267      0.538270     -1.862783
H      -2.372789     -1.180753     -1.474127
H      -1.552018      1.038438      0.485257
H      -1.620589     -0.664734      0.879729
H       0.117227     -1.139449     -0.845086
H       0.210629      0.573853     -1.236485
H       0.842816     -0.720311      1.442402
H       2.604492     -1.245562     -0.161226
H       2.740064      0.459085     -0.642635
H       3.195580     -0.043836      0.992566
