16
Extracted from Q-Chem output
C      -2.527177     -0.212690     -0.051528
C      -1.118632      0.271523      0.123599
C      -0.624801      1.615623     -0.053446
C       0.798381      1.394591     -0.102684
C       1.101045      0.059603     -0.088911
C       2.417510     -0.636048     -0.148351
N      -0.058781     -0.638675      0.040058
H      -2.758419     -1.062744      0.594688
H      -3.213592      0.600632      0.176023
H      -2.693044     -0.511269     -1.088010
H      -1.050089      0.965464      1.130092
H       1.540902      2.176443     -0.181632
H       2.445467     -1.358897     -0.966701
H       3.213932      0.088727     -0.305400
H       2.622039     -1.172300      0.781323
H      -0.125682     -1.636090      0.142957
