12
Extracted from Q-Chem output
O       1.858484     -0.827893     -0.692002
C       0.500561     -0.514758     -0.556772
C       0.067439     -0.296315      0.889087
C      -1.122723      0.617796      0.693597
O      -0.817621      1.313539     -0.574724
C       0.093884      0.747764     -1.287869
H       2.164161     -0.409208     -1.502617
H      -0.129841     -1.297785     -1.020425
H      -0.189985     -1.217975      1.407520
H       0.871364      0.203165      1.431757
H      -1.260284      1.388502      1.448233
H      -2.063085      0.085496      0.542712
