13
Extracted from Q-Chem output
O       2.280642     -1.131716     -0.123487
C       1.624065     -0.043088      0.458196
C       0.345835      0.236617     -0.332215
C      -0.568619     -1.005188     -0.297079
C      -1.704138     -0.530584      0.209503
C      -0.700694      1.029171      0.288370
C      -1.868599      1.282044      0.589817
H       1.598340     -1.802296     -0.274083
H       1.360516     -0.235291      1.506761
H       2.303058      0.810907      0.425287
H       0.571068      0.582774     -1.341193
H      -2.616250     -0.921619      0.634723
H      -2.734310      1.810745      0.919986
