14
smiles: [N:3]([C:4]([C:5]([C:6]#[C:7][H:14])([H:12])[H:13])([H:10])[H:11])([H:8])[H:9].[O+:1]#[C-:2]
O       -2.86818600      -0.80045000      -1.28542700
C       -3.18535700       0.26590100      -1.12925200
N       -0.91496100       0.60548900       1.06101700
C       -0.16374500      -0.63935100       1.04636600
C        0.74562400      -0.69496300      -0.18101700
C        1.77333100       0.34405700      -0.15587100
C        2.60189300       1.20782700      -0.10401400
H       -1.53048900       0.64621900       1.86118800
H       -0.28277200       1.39409600       1.12511100
H       -0.87272300      -1.46822400       0.98226700
H        0.44957400      -0.80051200       1.94420500
H        1.23093200      -1.67262600      -0.23516300
H        0.13808100      -0.57616600      -1.08148500
H        3.34472700       1.96906800      -0.06888800
