12
Extracted from Q-Chem output
N      -2.156638      0.166788     -0.414810
C      -0.795473      0.189948     -0.232227
C      -0.091754      1.292171     -0.869027
N       1.251949      1.342154     -0.629950
C       1.848093      0.439146      0.106280
N       1.211382     -0.587339      0.667782
C      -0.135668     -0.743131      0.515092
H      -2.452226      0.795872     -1.145205
H      -2.645580     -0.709457     -0.367584
H       1.729948     -1.255963      1.212532
H       2.917987      0.494836      0.285065
H      -0.578736     -1.602401      1.003202
