16
Extracted from Q-Chem output
C       2.173357      0.639504     -0.361464
C       0.890789      0.425716     -0.164641
C      -0.115491      0.366858      0.957497
C      -0.982430      1.098468     -0.095108
N      -0.213993      0.303876     -1.123630
C      -0.679656     -1.068212     -0.776676
C      -0.632451     -1.067587      0.784191
H       2.570932      0.696794     -1.366533
H       0.055116     -1.811700      1.186129
H       2.849647      0.768646      0.473316
H       0.073109      0.740863      1.961196
H      -2.059853      0.917722     -0.092199
H      -0.762009      2.158742     -0.200084
H      -0.008539     -1.800874     -1.222117
H      -1.681696     -1.221064     -1.178008
H      -1.611975     -1.212969      1.243058
