9
Extracted from Q-Chem output
N      -1.126362     -1.546701      0.012657
C      -0.475071      0.940449     -0.046802
C       0.853434      1.033812     -0.030471
C       1.013981     -0.447554      0.003351
N      -0.305805     -0.591146     -0.008086
H      -2.060187     -1.143769     -0.011323
H      -1.396032      1.495183     -0.078036
H       1.541139      1.863648     -0.041128
H       1.776114     -1.203437      0.052409
