12
Extracted from Q-Chem output
N      -1.167591     -0.150151     -2.169933
C      -0.866764      0.128925     -1.038655
C      -0.876914      0.912298      0.240074
C       0.213561      0.101711      0.906239
C       0.529786     -0.941653     -0.091731
N       1.448535      0.185949      0.138394
H      -0.661725      1.969415      0.081730
H      -1.853312      0.795817      0.715483
H       0.233337     -0.045311      1.977487
H      -0.253964     -0.858488     -1.593192
H       0.829977     -1.949083      0.186138
H       2.229653     -0.106753      0.715162
