14
Extracted from Q-Chem output
C      -0.694575     -1.640431      0.278334
C      -0.198388     -0.239915      0.044016
C      -0.985804      0.866974      0.707140
O      -0.579887      2.167682      0.377695
C       0.859495      0.025808     -0.666607
C       1.913823      0.321373     -1.371453
H      -0.757607     -1.851894      1.349131
H      -0.036208     -2.375674     -0.180269
H      -1.697236     -1.764974     -0.139007
H       1.841683      0.509982     -2.437088
H      -2.035642      0.779334      0.411042
H      -0.947746      0.703785      1.795233
H       0.378984      2.182970      0.316103
H       2.897260      0.376251     -0.916979
