16
Extracted from Q-Chem output
C      -1.101691     -0.686813     -1.098327
C      -0.892720     -0.254810      0.348282
C       0.534007      0.132853      0.717076
C       1.704146     -0.431166     -0.043057
C      -1.404777      1.132720      0.753495
O       0.376368      1.574567      0.444457
H      -0.713803      0.059580     -1.795689
H      -2.169698     -0.796218     -1.297968
H      -0.627064     -1.647159     -1.321835
H      -1.272355     -1.027480      1.022674
H       0.673358      0.017515      1.793136
H       2.636917      0.023151      0.296169
H       1.768850     -1.507694      0.128262
H       1.602733     -0.257163     -1.113943
H      -1.801462      1.632479     -0.144769
H       0.620292      2.086877      1.218636
