16
Extracted from Q-Chem output
C      -1.078805     -0.695287     -1.145960
C      -0.884617     -0.277256      0.306246
C       0.502598     -0.146421      0.792572
C       1.741622     -0.460548      0.039946
C      -1.067523      1.141372      0.733403
O       0.213670      1.721924      0.156744
H      -0.582481      0.003719     -1.821104
H      -2.143075     -0.684345     -1.386268
H      -0.700833     -1.703280     -1.347802
H      -1.440195     -0.930983      0.990028
H       0.588162     -0.098811      1.871285
H       2.588565      0.127937      0.391916
H       1.968408     -1.514196      0.249610
H       1.627408     -0.337218     -1.033882
H      -1.940830      1.651075      0.327028
H       0.584078      2.234488      0.874339
