14
Extracted from Q-Chem output
N      -2.310722     -0.242596     -0.063204
C      -0.952589     -0.096401      0.019741
C       0.023338     -1.027527     -0.122219
C       1.303229     -0.355160     -0.050381
N       2.505445     -0.771907     -0.074985
C       0.988842      1.125942      0.108088
N      -0.466290      1.174751      0.259116
H      -2.648273     -1.189065     -0.077960
H      -2.851389      0.371232      0.523097
H      -0.126327     -2.092582     -0.212101
H       1.497365      1.539705      0.978674
H       2.530948     -1.783715     -0.177175
H       1.316573      1.672402     -0.779102
H      -0.946421      1.915239     -0.227771
