12
Extracted from Q-Chem output
C       1.845567      0.489313     -0.746059
C       0.393978      0.759870     -0.430300
O      -0.102055      1.849316     -0.621131
C      -0.369321     -0.376097      0.120874
C      -1.657659     -0.221950      0.437043
O      -2.475740     -1.151089      0.941740
H       1.928143     -0.324936     -1.470166
H       2.372488      0.173406      0.157682
H       2.309142      1.386947     -1.148147
H       0.132864     -1.328632      0.261221
H      -2.003399     -1.981603      1.054553
H      -2.153283      0.731693      0.295484
