13
smiles: [C:4]([C:5](=[O:6])[H:12])([H:10])([H:11])[H:13].[N:1](=[C:2]=[C:3]([H:8])[H:9])[H:7]
N        2.20697600       0.14980000       0.73957900
C        1.64810800      -0.91833700       0.91065300
C        1.14381100      -2.09884000       1.14500900
C       -1.51053200       0.45183100      -0.65232700
C       -0.82501800       1.74618000      -0.97054800
O        0.32406300       1.98780300      -0.72386500
H        1.66745200       0.85887500       0.25230600
H        1.26810500      -2.89246200       0.42287100
H        0.59641400      -2.28192400       2.05803900
H       -2.35911900       0.64532400       0.00920800
H       -0.82019400      -0.24465500      -0.18044500
H       -1.46025700       2.50905400      -1.46916800
H       -1.91581900       0.01876800      -1.57042800
