13
Extracted from Q-Chem output
N       2.552021     -0.003708      0.465242
C       1.436416     -0.421371      0.620442
C       0.300144     -1.090680      0.892288
C      -1.060406     -0.266892     -0.547310
C      -0.777183      1.139618     -0.390649
O       0.405236      1.556103     -0.585696
H       2.656768      0.773479     -0.181149
H       0.255727     -2.121473      0.563955
H      -0.217037     -0.831891      1.806734
H      -2.026948     -0.661849     -0.243168
H      -0.555642     -0.770195     -1.362310
H      -1.441957      1.663438      0.321087
H      -1.538482      1.008099     -1.373226
