19
Extracted from Q-Chem output
C       1.273470     -1.162630     -1.352227
C       1.288443      1.040203     -0.168843
C      -0.048532      1.255146      0.276912
C      -1.254051      0.594725     -0.659487
C      -1.166570     -0.742572     -0.146719
C      -0.980495     -0.621706      1.332116
O      -0.361198      0.653535      1.529977
H       0.801869     -1.989539     -1.891597
H       1.715479     -0.491366     -2.078279
H       2.042227     -1.560995     -0.695792
H       1.950757      0.409380      0.400145
H       1.739789      1.756256     -0.845218
H      -0.290921      2.318464      0.303337
H      -2.094697      1.194040     -0.309072
H      -1.122749      0.711137     -1.735695
H       0.255937     -0.884103     -0.698331
H      -1.527444     -1.635583     -0.634617
H      -1.920321     -0.624878      1.898937
H      -0.340557     -1.412019      1.740823
