11
Extracted from Q-Chem output
C       1.593047      0.118489      0.088477
C       0.509936      0.444845     -0.713673
N      -0.383494      1.369042     -0.252480
C      -1.355565      0.595535      0.169375
C      -1.012729     -0.766096     -0.062063
O      -0.102648     -0.712300     -1.114449
H       0.347127     -0.607304      0.799971
H       2.066248      0.894894      0.675232
H       2.183439     -0.753670     -0.161682
H      -2.204867      0.972843      0.722673
H      -1.686764     -1.612375     -0.049123
