14
Extracted from Q-Chem output
O      -0.708042      1.719436     -0.989998
C      -0.568654      0.711831     -0.135108
C       1.876386      0.176140     -0.586989
C       1.513021     -1.092090     -0.382812
N       0.880694     -2.076013     -0.149738
C      -1.177150     -0.450676      0.153575
C      -0.722285      0.460379      1.302954
H      -0.183089      2.465688     -0.688539
H       1.990382      0.530286     -1.602931
H       2.382991      0.711418      0.205345
H      -2.150606     -0.827064     -0.122442
H      -0.196561     -1.545752      0.030119
H       0.125829      0.137416      1.900513
H      -1.455734      1.053481      1.849478
