16
Extracted from Q-Chem output
N       2.726928      0.580389      0.383090
C       1.513473      0.329111      0.149862
C       0.849882     -0.909074     -0.014021
C      -0.524240     -1.198542      0.528861
C      -1.345023     -0.435561     -0.516745
C      -0.622373      1.395212     -0.045751
O       0.668202      1.486105     -0.201451
H       2.943620      1.557237      0.204570
H      -0.335468     -0.123011     -1.126105
H       1.533043     -1.729909     -0.187919
H      -0.712065     -0.855681      1.552519
H      -0.734046     -2.267479      0.516186
H      -1.557015     -1.144793     -1.327481
H      -2.318286      0.024890     -0.308772
H      -1.003105      1.244998      0.963828
H      -1.191075      2.058003     -0.690873
