10
Extracted from Q-Chem output
O       2.135722     -0.204168     -0.023709
C       0.799293     -0.064703     -0.060726
C      -0.148221     -1.016525      0.103828
N      -1.351095     -0.347137      0.034593
C      -1.189207      0.959907     -0.273358
N       0.197299      1.141105     -0.333395
H       2.523337      0.624453     -0.319093
H      -0.064512     -2.082664      0.226807
H      -2.251690     -0.771249      0.166003
H      -0.513918      1.774498      0.471136
