12
Extracted from Q-Chem output
C      -1.421688      0.882173     -0.128304
C      -0.797705     -0.429142     -0.408183
O      -1.477650     -1.442594     -0.762621
C       0.576352     -0.833141     -0.315595
C       1.500042     -0.237734      0.593318
C       2.266256      0.240312      1.385237
H      -2.504327      0.804342     -0.062123
H      -1.141980      1.584186     -0.917065
H      -1.008673      1.275379      0.802424
H       0.971715     -1.058367     -1.307220
H      -0.360630     -1.966090     -0.502277
H       2.952376      0.651890      2.086200
