7
Extracted from Q-Chem output
O       2.211256     -0.495309      0.082050
C       1.088883     -0.139856      0.036454
O      -0.020019     -0.957248      0.036624
C      -1.068436     -0.121112     -0.025677
N      -0.771397      1.111603     -0.065175
O       0.627793      1.126992     -0.025729
H      -2.068080     -0.525070     -0.038547
