11
Extracted from Q-Chem output
N       1.227607      0.202713      0.909365
C       0.281465      0.997491      0.152843
C       1.181544     -0.448637     -0.382095
C      -0.258133     -1.064361     -0.489571
O      -1.018294     -0.971305      0.726439
C      -0.975339      0.140953     -0.133577
H       0.702167     -0.332281      1.598332
H       0.325992      2.074964      0.269207
H       0.899703      0.807674     -0.921114
H      -0.531652     -1.840217     -1.187181
H      -1.904024      0.520506     -0.537711
