14
Extracted from Q-Chem output
C       1.798210      0.335503      0.154680
C       0.636493     -0.436199     -0.441916
N      -0.559243      0.391461     -0.534593
C      -1.854407     -0.228636     -0.314821
C      -1.485685      0.486560      0.930831
H       2.001676      1.236961     -0.425890
H       1.584465      0.629400      1.184244
H       2.700285     -0.276949      0.157405
H       0.427927     -1.333724      0.153923
H       0.882551     -0.761401     -1.457411
H      -1.788517     -1.313665     -0.328082
H      -2.653279      0.154682     -0.943853
H      -0.652108      1.294839      0.144083
H      -0.940045     -0.197034      1.593888
