10
Extracted from Q-Chem output
O       2.254400     -0.508918      0.968565
C       1.180549     -0.334035      0.463805
N       0.607772      0.922584      0.398742
N      -0.716674      1.130559      0.152201
C      -1.488995      0.144433     -0.314716
C      -0.761019     -1.129733     -0.514807
N       0.437698     -1.369233     -0.141676
H       1.096680      1.689676      0.832049
H      -1.298396      1.402481     -0.828692
H      -1.293522     -1.936865     -1.013324
