23
smiles: [C:1](=[C:2]([H:11])[H:12])([H:8])[H:10].[C:3](=[C:4]([H:14])[H:16])([C:5]([C:6]([H:18])([H:19])[H:20])([C:7]([H:21])([H:22])[H:23])[H:17])[H:13].[H:9][H:15]
C        2.85205700       0.33392300      -1.36073700
C        2.46057100      -0.79195600      -0.78935400
C       -0.83735100      -0.91780900       0.94306800
C       -0.60613000      -0.35333000       2.11869600
C       -1.15353600      -0.22080000      -0.35264100
C       -1.13852700       1.29872100      -0.25722800
C       -2.49240300      -0.72558900      -0.89900900
H        2.79531700       1.28460300      -0.84288200
H        2.58686900       1.52658800       1.96096900
H        3.24720800       0.35221900      -2.37007500
H        2.51697700      -1.74260700      -1.30726100
H        2.06527100      -0.81013500       0.21991600
H       -0.81554300      -2.00453000       0.87880200
H       -0.39703500      -0.95517000       2.99467300
H        1.93790600       1.16190900       1.94481200
H       -0.61361100       0.72169300       2.25749400
H       -0.37666100      -0.52251500      -1.06721800
H       -1.33246400       1.74325800      -1.23518100
H       -1.91093500       1.65602500       0.42895200
H       -0.17504100       1.67181800       0.09497900
H       -2.69896300      -0.29736000      -1.88208300
H       -2.49881100      -1.81319700      -0.99791800
H       -3.30857900      -0.44648800      -0.22790400
