14
Extracted from Q-Chem output
C      -1.030070      0.814027     -0.478895
C      -1.392628     -0.257335      0.445812
C       0.054179     -0.225447     -0.053173
C       0.548310     -1.202911     -0.869703
O       2.379502      0.423636     -0.011076
C       1.319111      0.548445      0.705653
H      -1.339740      0.745208     -1.512169
H      -0.851763      1.814897     -0.109612
H      -1.484109      0.001308      1.494352
H      -2.030839     -1.064404      0.109397
H      -0.057071     -2.018372     -1.253966
H       1.622088     -1.156607     -1.053273
H       1.295129     -0.005718      1.675411
H       0.961022      1.581238      0.906860
