12
Extracted from Q-Chem output
O       2.258515      0.533555      0.235761
C       0.981771      0.199721     -0.006282
N       0.105747      1.043926     -0.459408
C      -1.222272      0.653167     -0.181198
C      -1.005676     -0.830036      0.002378
N       0.365739     -0.898237      0.591289
H       0.371501      1.933968     -0.849106
H      -1.939837      0.975662     -0.929179
H       2.773825     -0.276514      0.284193
H      -1.723212     -1.337385      0.643344
H      -0.940808     -1.382782     -0.954297
H       0.319203     -0.724573      1.601521
