12
Extracted from Q-Chem output
O       1.884221      0.495785      0.497701
C       1.150887     -0.116568     -0.378959
N       0.328876      0.734139     -1.035939
C      -0.724263      0.742288      0.015030
C      -0.939267     -0.752037      0.131944
N       0.489685     -1.260266     -0.022650
H       0.773656      1.631880     -1.152862
H      -1.612754      1.332388     -0.205575
H       0.922070      0.996681      0.933009
H      -1.390859     -1.063995      1.072672
H      -1.508000     -1.179482     -0.698243
H       0.882528     -1.645526      0.824247
