19
smiles: [C:1]([H:8])([H:9])([H:10])[H:12].[C:2]([C@@:3]1([H:13])[C:4]([H:14])([H:15])[C@:5]1([C:6]([H:16])([H:17])[H:18])[O:7][H:19])[H:11]
C        2.30702000       0.53160500       1.51966000
C        0.67016700      -1.28097500      -1.66122700
C        0.11413600      -0.01426800      -1.46122300
C       -1.41229500       0.29496400      -1.64655600
C       -0.96953400       0.24263100      -0.27836600
C       -1.33481100      -0.86396600       0.66911200
O       -0.79436300       1.47356400       0.31665100
H        3.30786000       0.38051700       1.92139900
H        1.57284900       0.39137700       2.31157400
H        2.22439200       1.54176300       1.12144500
H       -0.12463900      -2.03563000      -1.51322100
H        2.12259000      -0.18856700       0.72396100
H        0.72827000       0.87480200      -1.56833400
H       -1.99959600      -0.52282900      -2.03947200
H       -1.60528600       1.26999600      -2.07301200
H       -2.27761100      -0.60783000       1.15645000
H       -0.56918100      -0.98944000       1.43773700
H       -1.45571300      -1.81377100       0.15351200
H       -0.19297900       1.37957900       1.06015900
