13
Extracted from Q-Chem output
C       1.610273      0.141332     -0.080678
C       0.199659      0.201240      0.491603
C      -0.726113      1.197047     -0.149396
C      -1.864702      0.674535     -0.697527
C      -1.657929     -0.719061     -0.400438
N      -0.548332     -1.016597      0.247763
H       2.208187     -0.634025      0.402638
H       1.571942     -0.055494     -1.152885
H       2.110267      1.097272      0.074609
H      -0.451008      2.248662     -0.134823
H       0.237781      0.369572      1.575305
H      -2.322735     -1.541672     -0.656694
H      -0.252322     -1.936963      0.527460
