13
Extracted from Q-Chem output
C       1.754372      0.110996     -0.020105
C       0.263170      0.078954      0.043330
C      -0.721320      1.151872     -0.110606
C      -2.049509      0.641183     -0.255658
C      -1.813145     -0.715024     -0.209093
N      -0.478092     -1.049413     -0.036846
H       2.209481     -0.651694      0.613677
H       2.085573     -0.049330     -1.047836
H       2.123016      1.084411      0.301637
H      -0.397158      2.187298     -0.137239
H      -0.231970      0.744824      1.045164
H      -2.519059     -1.535416     -0.261137
H      -0.110394     -1.972814      0.121648
