18
smiles: [C:1]([C:2](/[C:3](=[C:5](/[C:6]([H:16])([H:17])[H:18])[H:15])[H:12])([H:10])[H:11])([H:7])([H:8])[H:9].[O:4]([H:13])[H:14]
C       -2.34464800      -0.07431500       0.19394100
C       -1.37238700       0.53683000      -0.81380000
C       -0.03705700       0.84622800      -0.20831000
O        0.52125600      -2.10753500       1.50421100
C        1.12112500       0.34191000      -0.60969500
C        2.45109800       0.64290300       0.00571200
H       -3.31716100      -0.26906200      -0.26210300
H       -1.95674100      -1.01707000       0.58496600
H       -2.50315200       0.59596700       1.04210000
H       -1.23845500      -0.14010100      -1.66199900
H       -1.80801100       1.45798200      -1.21612600
H       -0.04323500       1.53306100       0.63827300
H        0.40730200      -2.75739200       0.80957300
H        0.49855100      -1.25721800       1.06339600
H        1.12327700      -0.34692900      -1.45317000
H        2.92141800      -0.26682900       0.38836800
H        3.13809800       1.07063600      -0.72931500
H        2.35428600       1.34860700       0.83220600
