18
Extracted from Q-Chem output
C      -2.483132     -0.052105      0.201961
C      -1.243227      0.142246     -0.655021
C       0.040058      0.298409      0.087195
O       0.187716     -1.353951      1.181779
C       1.290249      0.024925     -0.503861
C       2.547605      0.715658     -0.027673
H      -3.383940     -0.051367     -0.413682
H      -2.440011     -0.998574      0.741187
H      -2.582803      0.744035      0.942194
H      -1.136276     -0.664543     -1.384882
H      -1.341852      1.065259     -1.242315
H       0.004388      0.904840      0.987065
H      -0.428951     -2.094241      1.149009
H       1.047870     -1.063288      0.225357
H       1.253791     -0.248856     -1.557027
H       3.432051      0.128846     -0.280405
H       2.673386      1.707161     -0.472270
H       2.536983      0.832740      1.057987
