13
Extracted from Q-Chem output
C       1.088617     -0.725873      0.919115
C       0.419017      0.911104     -0.538702
C       0.560986     -0.569045     -0.458938
C      -0.991166     -0.446698     -0.448527
N      -1.393294      0.107042      0.760504
C      -0.903385      1.143426     -0.099499
H       2.093970     -0.344658      1.049227
H       0.909968     -1.673252      1.426525
H       0.982168      1.608581     -1.152521
H       0.927762     -1.116636     -1.332182
H      -1.671378     -0.808315     -1.208200
H      -0.497821     -0.108810      1.383274
H      -1.505407      2.017667     -0.298119
