15
smiles: [C:1]([C:2]([C:4]([H:12])([H:13])[H:14])=[O:5])([C:3]([H:9])([H:10])[H:11])([H:6])[H:8].[H:7][H:15]
C        0.26111900       0.81021500      -0.18887700
C       -0.87839300      -0.17983900      -0.32707800
C        1.54073300       0.09001200       0.24258000
C       -1.06998100      -0.81805600      -1.68107200
O       -1.58055100      -0.45854300       0.61285300
H        0.42513100       1.32953900      -1.13665500
H       -0.49094000       0.75276100       3.55358400
H       -0.02496800       1.54458600       0.56495600
H        1.39024000      -0.41774000       1.19617400
H        1.85032300      -0.65521800      -0.49332400
H        2.35977200       0.79996200       0.36126100
H       -0.12154100      -1.19919200      -2.06658200
H       -1.79893100      -1.62271000      -1.61818600
H       -1.42055100      -0.06193000      -2.38843100
H       -0.78961000       0.46980500       2.93300400
