15
Extracted from Q-Chem output
C       0.193897      1.081603      0.490320
C      -0.201053     -0.255319      0.124111
C       1.435968     -0.482686     -0.213131
C      -0.990119     -0.395446     -1.170104
O      -0.582788     -0.986194      1.128296
H       0.295068      1.882355     -0.237848
H      -1.365249      1.101115      1.549210
H       0.703815      1.204135      1.436544
H       1.981612     -0.620285      0.714909
H       1.352876     -1.437015     -0.729175
H       1.934509      0.221065     -0.877248
H      -0.580166      0.189862     -1.996590
H      -1.019834     -1.447167     -1.456046
H      -2.014948     -0.072410     -0.977883
H      -1.340958      0.259883      1.664278
