14
Extracted from Q-Chem output
C      -0.934230      0.647366      0.594605
C      -0.494720      0.285827     -0.854823
C       0.917690      0.778424     -0.422022
C       0.488104      0.099604      0.912267
C       0.333861     -1.346799      0.442292
C      -0.309656     -1.224680     -0.714170
H      -1.785704      0.108912      1.011393
H      -1.028936      1.722701      0.760298
H      -1.004006      0.672034     -1.735067
H       0.991442      1.865538     -0.348145
H       1.778271      0.359232     -0.943869
H       0.992747      0.291083      1.856710
H       0.681151     -2.233349      0.952115
H      -0.634606     -1.982641     -1.411598
