14
Extracted from Q-Chem output
C      -1.250108      0.704279      0.370775
C      -0.353734      0.371286     -0.823734
C       1.010375      0.811882     -0.348725
C       0.954403     -0.082849      0.876425
C       0.398654     -1.314602      0.502918
C      -0.385173     -1.101711     -0.610804
H      -1.579516     -0.078408      1.031694
H      -1.965420      1.525611      0.259571
H      -0.725827      0.738767     -1.780527
H       1.036706      1.875894     -0.123927
H       1.851928      0.551380     -1.008852
H       1.574524      0.049895      1.755035
H       0.441018     -2.222774      1.088746
H      -1.039599     -1.796860     -1.115514
