15
Extracted from Q-Chem output
C       2.062985     -0.510617      0.149449
N       1.215413     -0.038125     -0.807513
C       0.828856      1.323360     -0.623375
C      -0.381117      1.267040     -0.085634
C      -0.684193     -0.188200     -0.010749
C      -2.049180     -0.720242      0.290291
N       0.133518     -0.850596     -0.866427
H       2.960701      0.066435      0.350930
H       2.099876     -1.587354      0.244577
H       0.352025     -0.370875      1.037451
H       1.546953      2.115243     -0.759043
H      -0.995757      2.063518      0.301047
H      -2.755091     -0.422525     -0.487539
H      -2.411027     -0.332697      1.243208
H      -2.025048     -1.807825      0.337718
