9
smiles: [H:7][H:8].[N:1](=[C:2]=[N:3][C:4](=[O:5])[H:9])[H:6]
N       -0.83442700       1.71775900       0.74896500
C        0.01028100       0.93507800       0.39732400
N        0.97071300       0.24847900       0.07637800
C        1.13528500      -0.34116400      -1.18929200
O        2.01223600      -1.10772100      -1.43326000
H       -1.67430700       1.47183700       1.24562300
H       -1.32782500      -1.59820100       2.20367300
H       -0.65962200      -1.60891600       1.87533000
H        0.39064200      -0.02765700      -1.94239400
