9
Extracted from Q-Chem output
N      -0.964730      1.299909      0.649207
C      -0.469252      0.185578      0.669362
N       0.368785     -0.673625      0.115658
C       1.114049     -0.349448     -1.015522
O       1.879257     -1.114439     -1.528898
H      -1.648556      1.642085      1.299913
H      -0.921944     -0.681997      1.740649
H      -0.289094     -1.200380      1.248753
H       0.944055      0.670406     -1.404422
