12
Extracted from Q-Chem output
C      -0.014058     -1.464862     -0.000216
N      -0.026324     -0.013622     -0.000392
C       1.170883      0.676554     -0.000279
N       2.280114      0.072703      0.000553
C      -1.212261      0.679705     -0.000030
O      -2.305489      0.179929      0.000414
H      -1.045567     -1.805689     -0.005881
H       0.502486     -1.832222      0.885956
H       0.512605     -1.831601     -0.880587
H       1.039818      1.761882     -0.000930
H       3.048166      0.733851      0.000403
H      -1.057510      1.772396     -0.000252
