10
smiles: [H:6][H:9].[N:3]1=[C:5]([H:10])[C:4]1([H:7])[H:8].[O+:1]#[C-:2]
O        3.22192400       0.34781900       0.77572900
C        2.44207000       0.48417400      -0.02131700
N       -0.29628400      -0.42084100       1.20587700
C       -1.07570500       0.64329800       0.44392200
C       -1.18119600      -0.79751300       0.41757000
H        0.58187500      -0.65279700      -2.13522000
H       -1.77417600       1.23792600       1.02371100
H       -0.53751800       1.17145100      -0.33656600
H        0.07014500      -0.83037600      -2.64607200
H       -1.61907400      -1.71821800       0.05877100
