16
Extracted from Q-Chem output
C       1.639918     -0.886073     -0.286816
C       0.747939     -0.429881      0.861591
C       0.035990      0.898611      0.606263
C      -0.899032      0.883260     -0.607455
C      -1.988467     -0.139443     -0.451690
O      -2.234008     -1.011566     -1.239234
H       2.194169     -1.785780     -0.015340
H       1.059269     -1.119966     -1.181071
H       2.368163     -0.114293     -0.549859
H       1.346580     -0.330251      1.771149
H      -0.537851      1.177297      1.496040
H       0.777603      1.689413      0.461736
H      -1.384035      1.861743     -0.698222
H      -0.365541      0.688064     -1.538361
H      -2.583991     -0.049906      0.484550
H       0.006686     -1.207890      1.074301
