16
Extracted from Q-Chem output
C       1.511055     -0.908866     -0.211518
C       0.395679     -0.318566      0.644646
C       0.165190      1.184069      0.417050
C      -1.005842      1.037506     -0.561645
C      -1.373681     -0.335270     -0.020912
O      -1.566075     -1.407922     -0.782862
H       1.558929     -1.997474     -0.138814
H       1.378876     -0.653186     -1.265137
H       2.473642     -0.509372      0.116549
H       0.464989     -0.635033      1.684184
H      -0.145230      1.675902      1.338792
H       1.039065      1.708064      0.028184
H      -1.802028      1.779281     -0.501770
H      -0.677082      0.941107     -1.596426
H      -1.928507     -0.280070      0.929662
H      -0.479302     -1.248724     -0.045817
