14
Extracted from Q-Chem output
N       1.804513     -1.742267      0.009889
C       0.834726     -1.072634     -0.024748
O       0.980335      0.366345     -1.649725
C       0.294726      1.402479     -0.988010
C      -0.888027      0.700564     -0.332425
C      -1.275349     -0.497737     -1.086450
C      -0.466344     -0.642203      0.252588
H       2.716567     -1.704250     -0.403447
H      -0.060162      2.151715     -1.705080
H       0.958933      1.887277     -0.268101
H      -1.556248      1.283320      0.295033
H       0.123967     -0.212195     -1.925076
H      -2.295284     -0.848010     -0.960063
H      -0.860798     -0.956305      1.212009
