15
smiles: [C:1]([N:2]=[C:3]([H:10])[H:12])([H:7])([H:8])[H:9].[C:4](=[C:5]([O:6][H:11])[H:15])([H:13])[H:14]
C       -2.21575000      -0.37160900       0.66002700
N       -1.00036500       0.24993200       0.18735000
C       -1.09537800       1.11479700      -0.71916000
C        2.27640500      -0.73390400      -0.87196600
C        2.50887700      -0.28986400       0.35468800
O        1.58638500       0.10055000       1.26426400
H       -2.13538500      -1.45206100       0.52579100
H       -3.11970200      -0.01127600       0.15016500
H       -2.31432300      -0.18906000       1.73186800
H       -2.05319100       1.41776200      -1.16361100
H        0.70722700       0.01141200       0.88625500
H       -0.19444100       1.59706600      -1.09427100
H        1.27291200      -0.82632100      -1.27298600
H        3.10227900      -1.01567600      -1.50816100
H        3.50983400      -0.19562800       0.75968500
