17
smiles: [H:15][H:17].[O:1]([C@@:2]1([H:9])[C:3]([H:10])([H:11])[C:4]([H:12])([H:13])[C+:5]([H:14])[C:6]([H:16])=[C-:7]1)[H:8]
O        1.93401800      -0.57725500       0.92173300
C        1.21852800      -0.43014600      -0.28774000
C       -0.04165800      -1.31129400      -0.25791900
C       -1.27595100      -0.46937500       0.02384300
C       -1.28859600       0.73179900      -0.85952200
C       -0.15753100       1.28119000      -1.37303700
C        1.02538900       0.97413000      -0.66757400
H        2.39874600       0.25506400       1.05513100
H        1.84684700      -0.76065600      -1.14346200
H        0.09414600      -2.09392600       0.48696600
H       -0.16023200      -1.79185800      -1.23069000
H       -1.30871400      -0.15590800       1.07403100
H       -2.18792100      -1.04851400      -0.14309700
H       -2.23829800       1.23855800      -1.01111500
H        0.01112800       1.22246500       3.06181200
H       -0.22019700       2.16597900      -1.99820900
H        0.43730900       0.77290200       2.64873300
