17
Extracted from Q-Chem output
O       1.646818     -0.595139      1.272106
C       1.209509     -0.396555     -0.045289
C       0.098727     -1.368061     -0.478092
C      -1.207353     -0.749186      0.026150
C      -1.020502      0.758994     -0.073081
C      -0.366753      1.366539     -1.186932
C       0.565431      0.965032     -0.251484
H       0.900731     -0.486724      1.870318
H       2.101176     -0.487258     -0.666238
H       0.284449     -2.365479     -0.077894
H       0.093450     -1.429652     -1.566366
H      -1.395490     -1.019536      1.070010
H      -2.070732     -1.085377     -0.550885
H      -1.556502      1.376965      0.662085
H       0.312675      1.446683      1.288698
H      -0.516808      2.316181     -1.673277
H       0.981856      1.751589      0.599616
