12
smiles: [C:1](=[N:2][H:9])([H:7])[H:8].[C:3](=[O:4])([C:5]([H:10])([H:11])[H:12])[H:6]
C       -2.11038700      -0.31999400       0.62162000
N       -1.41103100       0.71816000       0.77002600
C        0.93763100      -0.18523800      -0.79537300
O        0.48050600      -1.26596600      -1.04595500
C        1.92769900       0.08757800       0.29625900
H        0.63225900       0.70072800      -1.39180400
H       -3.12997300      -0.44227100       1.00112800
H       -1.68761200      -1.16766600       0.08131900
H       -1.92088900       1.43075200       1.29050500
H        2.83364000       0.52085400      -0.13573900
H        2.17017800      -0.82632100       0.83499500
H        1.51710200       0.83211700       0.98335700
