12
Extracted from Q-Chem output
C      -1.919280     -0.381463      0.344215
N      -0.814079      0.299494      0.473868
C       0.352275      0.060649     -0.232820
O       0.259050     -1.086509     -1.030456
C       1.616600      0.268815      0.548845
H       0.283267      0.100978     -1.442624
H      -2.793458     -0.062772      0.889967
H      -1.909065     -1.213804     -0.340544
H      -0.796809      1.079654      1.115930
H       2.468111      0.292753     -0.128330
H       1.766499     -0.563643      1.247210
H       1.602653      1.206220      1.111343
