15
Extracted from Q-Chem output
C      -1.845412     -0.055115      0.609712
C      -0.959619     -0.154178     -0.621704
N       0.438914      0.088903     -0.326333
C       1.314974     -0.708284      0.522934
C       2.665255     -0.030272      0.434932
N       2.479551      1.032880     -0.392011
C       1.205573      1.047366     -0.792818
H      -2.886566     -0.227700      0.334424
H      -1.571133     -0.801069      1.356671
H      -1.769354      0.932587      1.066455
H      -1.267149      0.573496     -1.374961
H      -1.049160     -1.144988     -1.075925
H       1.374129     -1.743055      0.173268
H       0.973186     -0.714885      1.561640
H       0.802600      1.794694     -1.471296
