18
Extracted from Q-Chem output
C      -1.000649     -1.524972     -0.615054
C      -0.437667     -0.212577     -0.702428
C      -1.537462      0.978819      0.685930
N       0.844413      0.106931     -0.265014
C       1.527411     -0.753920      0.676880
C       1.385653      1.315108     -0.635530
O       0.844600      2.120382     -1.346216
H      -0.574956     -2.255918      0.054984
H      -1.596428     -1.865843     -1.447741
H      -1.512952     -0.417485      0.129467
H      -0.753561      0.410292     -1.527428
H      -1.339777      1.945924      0.227656
H      -2.621096      0.827217      0.759445
H      -1.072899      0.906619      1.671013
H       0.957409     -0.841777      1.605040
H       1.674674     -1.747356      0.254535
H       2.499532     -0.321544      0.908073
H       2.394431      1.467166     -0.216961
