12
Extracted from Q-Chem output
O      -2.102375      0.895831     -0.692953
C      -1.570757     -0.188345      0.005265
C      -0.067161     -0.186105     -0.014523
N       0.572516      0.757702     -0.564045
N       1.917657      0.801025     -0.514599
C       1.157526     -2.124854      1.112045
N       0.574894     -1.248388      0.604025
H      -1.370469      1.480798     -0.920949
H      -1.927336     -1.126317     -0.435704
H      -1.899510     -0.179185      1.053269
H       2.294537      1.374077     -1.249041
H       2.394554     -0.083444     -0.387200
