13
Extracted from Q-Chem output
C      -1.510940      0.126345     -1.244015
C       0.292527      0.040627      0.402871
C      -0.015564      1.208421      0.983854
N      -0.446374     -0.583276     -0.584514
C       1.459150     -0.696254      0.814055
C       2.431446     -1.321740      1.127913
H      -1.917869     -0.499955     -2.036166
H      -1.177771      1.077744     -1.679774
H      -2.317019      0.341110     -0.537954
H      -0.878908      1.786748      0.687031
H       0.600082      1.585618      1.785588
H       0.071402     -1.235819     -1.145138
H       3.295736     -1.870103      1.419624
