11
Extracted from Q-Chem output
N       1.935983     -0.473884     -0.235658
C       0.608416     -0.282591     -0.375662
C      -0.294457      0.847255      0.011612
N      -0.980212      0.698581      1.309516
C      -1.799067     -0.081919      0.708719
N      -1.346902     -0.002471     -0.641824
N      -0.293468     -1.046694     -0.886477
H       2.359076     -1.250539     -0.712066
H       2.522838      0.308721     -0.019099
H      -0.107546      1.861565     -0.335093
H      -2.628159     -0.663684      1.096960
