11
Extracted from Q-Chem output
N       2.018935     -0.440007     -0.200506
C       0.695331     -0.183037     -0.353266
C      -0.173746      0.833338      0.238001
N      -0.812766      0.505427      1.366316
C      -1.779308     -0.063445      0.651306
N      -1.529551     -0.400647     -0.638176
N      -0.187609     -0.889487     -0.950498
H       2.353202     -1.256695     -0.685989
H       2.650617      0.340644     -0.184446
H      -0.476061      1.695161     -0.363076
H      -2.782539     -0.226912      1.041264
