13
Extracted from Q-Chem output
C      -0.244530      0.048786      0.538503
C      -1.339341     -0.911573      0.111896
C      -0.065604      1.313825     -0.277386
C       1.174938      1.017467     -0.655997
C       1.210644     -0.299493      0.083176
H      -1.262796     -1.859697      0.649609
H      -0.306842      0.236976      1.614848
H      -1.274352     -1.122099     -0.958759
H      -2.329823     -0.495626      0.311022
H      -0.727367      2.149778     -0.472639
H       1.908514      1.529187     -1.267037
H       1.275398     -1.191146     -0.545591
H       1.946320     -0.382221      0.886485
