13
Extracted from Q-Chem output
C       0.061402      0.156581      1.042869
C      -2.367727     -0.774999     -0.538107
C      -0.015209      1.180118     -0.069258
C       1.039052      0.693686     -0.722420
C       1.295790     -0.410311      0.277186
H      -0.790925     -0.525623      1.137214
H       0.275318      0.554815      2.036724
H      -1.983143     -0.310982     -1.467510
H      -1.822204     -1.741900     -0.519658
H      -0.691289      2.007048     -0.247319
H       1.544728      0.980030     -1.636478
H       1.180099     -1.429631     -0.097775
H       2.239269     -0.344668      0.822662
