13
smiles: [C:1]([O:7][C:6](=[C:5]([H:11])[H:12])[H:13])([H:8])([H:9])[H:10].[O:2]=[C:3]=[O:4]
C       -1.08853300       0.34051800       1.14863400
O       -1.33379300      -0.42862400      -2.16589700
C       -0.44571300       0.20245700      -2.55325800
O        0.44237000       0.83354000      -2.94061600
C        1.35651400      -0.89833800       0.53371300
C        1.08458400       0.37340500       0.26257400
O       -0.04893500       1.05338300       0.51706900
H       -1.41603200      -0.50335800       0.53298400
H       -0.77001100      -0.03255600       2.12731300
H       -1.91110900       1.04051400       1.27622100
H        2.32460500      -1.29047700       0.25814700
H        0.66119000      -1.56991000       1.01713000
H        1.80569800       1.02055500      -0.22382400
