13
Extracted from Q-Chem output
C      -1.591084      0.225028      0.968499
O      -0.985608      0.097649     -1.065489
C       0.098551     -0.373850     -1.524722
O       0.377695     -0.700395     -2.655332
C       1.206708     -0.561064     -0.413052
C       1.234043      0.655181      0.402928
O       0.285895      1.064298      1.054420
H      -2.157897      1.029169      0.529281
H      -1.844129     -0.768233      0.635639
H      -1.353404      0.324839      2.016976
H       2.167205     -0.778286     -0.868567
H       0.866699     -1.409806      0.185444
H       2.136475      1.284235      0.388389
