16
Extracted from Q-Chem output
C       2.322290      0.404289     -0.233754
C       1.089756     -0.444787      0.001487
C      -1.277511     -0.486618     -0.263161
C      -2.369282     -0.181732      0.642113
C      -0.217171      0.468107     -0.396763
O      -0.266402      1.602234      0.196809
H       2.199559      1.370581      0.253347
H       3.203718     -0.094434      0.175462
H       2.488090      0.574838     -1.299565
H       1.117902     -1.370032     -0.577121
H       0.984776     -0.688069      1.059735
H      -1.234643     -1.413440     -0.828073
H      -1.914836      0.159926      1.585011
H      -2.835398      0.747853      0.282550
H      -3.102376     -0.969514      0.788698
H      -0.044290      0.474438     -1.519099
