11
Extracted from Q-Chem output
C      -0.190769      1.171764     -0.026880
C      -1.252019      0.282136     -0.010660
C      -0.974668     -1.076578      0.020677
N       0.256749     -1.575737      0.036028
C       1.266084     -0.711443      0.020135
C       1.097939      0.664855     -0.011041
H      -0.365342      2.240999     -0.051592
H      -2.277629      0.629101     -0.021917
H      -1.783801     -1.800829      0.034643
H       2.262568     -1.142821      0.033074
H       1.960885      1.318552     -0.022466
