19
Extracted from Q-Chem output
C      -1.893162     -1.203216      0.613951
C      -1.299614     -0.662381     -0.687179
C      -0.092838      0.214790     -0.493959
C       1.159704     -0.387260     -0.087853
C       2.223583      0.374747      0.522879
C      -0.087498      1.549655     -1.008264
O       0.894149      2.283216     -1.084655
H      -2.743287     -1.859404      0.416199
H      -1.156666     -1.778443      1.180091
H      -2.231636     -0.384900      1.251876
H      -1.045279     -1.505756     -1.340559
H      -2.064148     -0.094063     -1.223815
H       0.151700      1.061288      1.370556
H       1.788687     -0.446788     -1.031281
H       1.068419     -1.403560      0.293560
H       3.028699     -0.157039      1.019298
H       0.876819      1.094033      1.695505
H       2.398321      1.383811      0.179900
H      -1.074615      1.919621     -1.353147
