11
smiles: [C:1]([C:2]#[C:3][H:11])([H:7])([H:8])[H:9].[C:4](=[O:5])=[N:6][H:10]
C       -2.05937700      -0.07185600       0.39823500
C       -0.94530500       0.86521300       0.33944200
C       -0.02996500       1.63502900       0.29075500
C        1.86893800      -1.14116100      -0.27576500
O        0.92930100      -1.82034000      -0.30732000
N        2.76365600      -0.33004900      -0.28422300
H       -1.71380500      -1.09222400       0.22681200
H       -2.80469900       0.16772700      -0.36126000
H       -2.54340700      -0.03498400       1.37502200
H        3.71977900      -0.51438600      -0.04301000
H        0.78432200       2.31859900       0.24623600
