11
Extracted from Q-Chem output
C      -2.334148      0.144778      0.401808
C      -0.894188      0.230740      0.285150
C       0.318365      0.275863      0.182028
C       1.776695     -0.641433     -0.182335
O       1.709123     -1.786021     -0.459248
N       2.608821      0.356358     -0.013550
H      -2.638350     -0.884781      0.194280
H      -2.829401      0.796351     -0.318719
H      -2.663004      0.398310      1.410150
H       3.588973      0.131767     -0.162091
H       1.351956      0.983415      0.258909
