14
Extracted from Q-Chem output
C       1.947991      0.021169      0.343732
N       0.592702     -0.485786      0.444097
C      -0.309567     -0.231406     -0.458108
C      -1.705252     -0.713400     -0.319196
C      -0.347451      2.122253     -0.387149
N      -1.209606      2.036759      0.395769
H       2.329647     -0.153848     -0.660288
H       2.580906     -0.493451      1.062979
H       1.933803      1.098780      0.532104
H       0.256184     -0.698152      1.371856
H       0.056124      0.038610     -1.438639
H      -2.373901     -0.071091     -0.883827
H      -1.750564     -1.726773     -0.732459
H      -2.028191     -0.726848      0.719770
