11
Extracted from Q-Chem output
C      -1.654327      0.048365     -0.347531
C      -0.222424      0.065673      0.071905
O       0.637774     -0.624766     -0.783258
C       0.185249      0.686253      1.167282
O       0.298612      1.288888      2.151266
C       1.916874     -0.628066     -0.443863
O       2.343091     -0.079619      0.534595
H      -2.259028      0.616721      0.358253
H      -2.040194     -0.973060     -0.381644
H      -1.774215      0.497792     -1.335963
H       2.510758     -1.192428     -1.169451
