15
smiles: [C:4](=[N:5][C:6]([C:7]([H:8])([H:14])[H:15])([H:12])[H:13])([H:10])[H:11].[N:1](=[C:2]=[O:3])[H:9]
N        2.39637200       0.41809100      -0.97242700
C        2.91883100      -0.51347000      -1.53588100
O        3.51140100      -1.32025600      -2.12167600
C        0.07061100       0.17932400       1.89965500
N        0.02909900       0.41581400       0.66626000
C       -1.27035000       0.60525400       0.05226400
C       -1.48968800      -0.41906700      -1.05025700
H       -1.49506700      -1.43101400      -0.64098700
H        1.57030700       0.36878300      -0.40559200
H       -0.82757400       0.11867900       2.52910000
H        1.03372700       0.02765300       2.38416900
H       -2.08252700       0.55188400       0.79317900
H       -1.28108500       1.61002600      -0.37938700
H       -2.44452700      -0.24725600      -1.55010900
H       -0.69214200      -0.35730600      -1.79147800
