11
Extracted from Q-Chem output
N      -0.718128     -0.255045     -0.921356
C      -0.014176     -0.122311      0.321038
C       1.462105     -0.109477      0.376173
O       1.504404      0.922838      1.172817
C       0.136016      1.205452      1.090154
C      -1.529264     -1.247843     -1.162862
H      -0.541831      0.510222     -1.567223
H      -0.402503     -0.860919      1.031083
H       2.314952     -0.444488     -0.196499
H      -0.312718      1.384072      2.066768
H      -1.920282     -1.086720     -2.183821
