11
Extracted from Q-Chem output
N      -1.174110     -0.733769     -0.339826
C      -0.306673     -0.395150      0.819827
C       0.980468     -0.566269     -0.018793
O       1.559610      0.698732      0.380784
C       0.147231      0.988400      0.272742
C      -0.077433      0.060218     -0.955475
H      -2.039030     -0.197559     -0.314055
H      -0.501765     -0.703793      1.844765
H       1.621355     -1.432625     -0.158596
H      -0.206781      1.996001      0.485883
H      -0.002872      0.285813     -2.017256
