11
Extracted from Q-Chem output
N      -1.026792     -0.378715     -0.562109
C      -0.289326     -0.052870      0.639017
C       1.121613     -0.318658      0.190267
O       1.623163      0.816943      0.392944
C       0.154686      1.442055      0.717854
C      -0.216426     -0.586371     -1.543829
H      -2.034775     -0.264089     -0.617281
H      -0.666149     -0.548679      1.536305
H       1.729842     -1.199951      0.008840
H       0.303637      1.703190      1.774822
H      -0.720898     -0.717076     -2.510554
