9
Extracted from Q-Chem output
C       0.007244      0.869802     -0.021835
C       1.160386      0.117203      0.002734
N       1.132809     -1.210201      0.081959
N      -0.015223     -1.837998      0.139407
N      -1.152677     -1.188941      0.119966
C      -1.158229      0.138734      0.041078
H       0.016111      1.949657     -0.086137
H       2.148517      0.561008     -0.040676
H      -2.138938      0.600735      0.030145
