13
Extracted from Q-Chem output
C      -2.139448     -0.478947      0.817257
C      -0.846553     -0.565542      0.079597
C       1.110528      0.255000     -0.856401
N      -0.122857      0.443635     -0.133714
C       2.272565      0.875819     -0.112289
O       3.415215      0.560462     -0.291237
H      -2.114468     -1.120173      1.701874
H      -2.958378     -0.835229      0.187341
H      -2.335620      0.548288      1.118777
H      -0.547225     -1.562661     -0.276907
H       1.351653     -0.791134     -1.086590
H       1.043385      0.797025     -1.808008
H       1.992413      1.666917      0.611708
