14
Extracted from Q-Chem output
C      -0.048492      1.374488     -0.104887
C      -1.040732      0.174421     -0.000924
C      -0.427912     -1.232041     -0.264244
C       0.829510     -1.285331      0.586669
C       1.599684     -0.270370      0.275895
C       1.388640      0.895712     -0.283595
H      -0.290018      1.986691     -0.977773
H      -0.165364      2.024857      0.764262
H      -1.866649      0.338300     -0.697263
H      -1.479021      0.156971      0.999245
H      -0.193507     -1.354880     -1.322362
H      -1.148207     -2.005797      0.007889
H       0.888459     -1.875978      1.492289
H       2.047590      1.386844     -0.988479
