14
Extracted from Q-Chem output
C      -1.036968     -0.837521      0.878455
C      -0.318883     -0.008073     -1.336179
C      -0.075262      1.175966     -0.467255
N       0.489217      0.393830      0.625666
C       1.409680     -0.511139      0.006605
O       2.339380     -1.037925      0.549908
O       0.943846     -0.705305     -1.208297
H      -0.760287     -0.898974      1.926896
H      -0.942054     -1.783856      0.366724
H      -1.985081     -0.347352      0.710042
H      -0.524871      0.137398     -2.392615
H      -0.968018      1.718531     -0.166014
H       0.697881      1.870986     -0.830951
H       0.837728      0.831126      1.469898
