14
Extracted from Q-Chem output
C       2.881280     -1.085679     -0.457876
C       1.864924     -0.775550      0.293965
C       0.615936     -0.275371      0.603913
C      -0.292109      0.332730     -0.375551
C      -1.396831      1.229712      0.134283
C      -1.739489     -0.098130     -0.440579
H       3.678306     -0.357928     -0.610770
H       1.314657     -1.707489      0.759156
H       0.235030     -0.422213      1.611280
H       0.173704      0.601898     -1.314901
H      -1.610759      2.118585     -0.443354
H      -1.477065      1.360428      1.205994
H      -2.050922     -0.883087      0.236285
H      -2.195975     -0.137857     -1.420260
