16
Extracted from Q-Chem output
C       2.310178      0.053887     -0.150596
C       0.938542     -0.349119     -0.676372
C      -0.212551      0.264483      0.033722
O      -0.401256     -0.272016      1.417617
C      -1.957868      0.641680      0.880529
C      -1.597178      0.143305     -0.464200
H       3.112359     -0.479439     -0.666771
H       2.391590     -0.164928      0.916035
H       2.463898      1.126605     -0.278798
H       0.840309     -1.457662     -0.623184
H       0.851048     -0.096339     -1.737928
H      -0.448929     -1.257664      1.400817
H      -2.598465      0.088956      1.562503
H      -1.833371      1.694302      1.082726
H      -2.001735     -0.861526     -0.686334
H      -1.832228      0.846402     -1.265104
