12
Extracted from Q-Chem output
N       2.084492     -0.260191      0.186244
C       0.721197      0.055913      0.000382
C       0.100496      1.258450     -0.296139
C      -1.350168      0.829916     -0.242888
C      -1.430300     -0.575193     -0.054223
N      -0.178663     -0.984116      0.116140
H       2.520041     -0.565940     -0.674911
H       2.569834      0.571490      0.491547
H      -0.981874      1.283531      0.767337
H      -2.172521      1.434102     -0.600315
H      -2.268139     -1.254334     -0.030035
H       0.092051     -1.921247      0.376392
