15
Extracted from Q-Chem output
C      -0.697924     -1.306817      0.732638
C      -0.280837     -0.138973     -0.162224
C      -1.132574      1.102932      0.101962
C       1.186683      0.168945      0.013045
O       1.478646      0.563013      1.267861
N       2.114356      0.097456     -0.841729
H      -0.577081     -1.048244      1.785511
H      -0.098671     -2.196276      0.530528
H      -1.746437     -1.555788      0.559392
H      -0.410248     -0.435316     -1.206677
H      -0.842425      1.929802     -0.548561
H      -2.185494      0.880717     -0.081063
H      -1.027173      1.430604      1.136945
H       1.762195     -0.211638     -1.740238
H       2.428173      0.733039      1.285416
