15
smiles: [C:5]1([H:11])=[C:6]([H:13])[C:7]1([H:14])[H:15].[N:1]([C:2](=[C:3]=[N:4][H:12])[H:10])([H:8])[H:9]
N        2.56570600      -0.12762500      -0.32883400
C        1.75103300      -0.08313900       0.83569100
C        0.93156700       0.88727600       1.14632000
N        0.21860400       1.82713900       1.48334800
C       -0.83526500      -0.52048900      -1.12533200
C       -1.82164200       0.30192000      -1.15878600
C       -1.97928300      -0.85250500      -0.21327000
H        3.54199600      -0.23670800      -0.08952000
H        2.46566500       0.70378700      -0.89245400
H        1.74830900      -0.96825900       1.45973100
H        0.13814800      -0.81892300      -1.47143300
H       -0.71533000       1.80511100       1.07539700
H       -2.27498900       1.19350200      -1.55355100
H       -2.65273300      -1.66942200      -0.46929400
H       -1.87748200      -0.68774500       0.85871700
