15
Extracted from Q-Chem output
N       1.872405     -0.756368     -0.001150
C       0.812708      0.151338      0.404429
C       1.253635      1.566902      0.467508
N       1.628293      2.651314      0.500491
C      -0.388064      0.035244     -0.504849
C      -1.753335      0.327350      0.034815
C      -1.354413     -1.083076     -0.284503
H       2.681507     -0.664288      0.598554
H       2.170057     -0.556177     -0.947510
H       0.505406     -0.123421      1.418051
H      -0.194114      0.329282     -1.531007
H      -1.833399      0.609383      1.077407
H      -2.458617      0.826449     -0.615204
H      -1.788148     -1.556034     -1.154832
H      -1.153921     -1.757897      0.537800
