16
Extracted from Q-Chem output
C       1.751207      1.304232     -0.181411
C       0.396607      0.947252     -0.646929
N       1.570985      0.494216     -1.314978
C       0.766830     -1.083735      0.564306
C      -0.226901     -0.176245      0.132028
C      -1.569575     -0.106433      0.846844
C      -1.524001     -0.735713     -0.487622
H       1.939446      0.801774      0.803701
H       2.269715      2.255768     -0.274388
H      -0.286551      1.628552     -1.152401
H       1.796780     -0.956108      0.276701
H       0.482770     -1.979479      1.109244
H      -1.988890      0.887823      0.928963
H      -1.709720     -0.732989      1.717709
H      -1.609561     -1.810843     -0.562659
H      -1.883752     -0.183451     -1.346942
