10
Extracted from Q-Chem output
N       3.138858     -0.452218      0.630542
C       2.013857     -0.426993      0.402701
C       0.626408     -0.325431      0.099594
N      -0.254196     -1.272612      0.118623
C      -1.457408     -0.694634     -0.198817
C      -1.429240      0.644861     -0.534284
N       0.029385      0.891543     -0.221553
H      -2.346836     -1.306600     -0.209696
H      -0.761408      1.316508      0.507484
H       0.524158      1.677622     -0.622778
