17
Extracted from Q-Chem output
C       2.018211     -0.206486     -0.620255
C       0.968354      0.382021      0.316110
O       0.032876      1.057998     -0.552592
C      -1.271217      1.130292     -0.035477
C      -1.871607     -0.279707      0.018248
C       0.217334     -0.558527      1.244859
O      -0.799031     -1.245402      0.175822
H       2.406409      0.551275     -1.303683
H       1.611894     -1.019558     -1.233667
H       2.846881     -0.613267     -0.038997
H       1.458654      1.123863      0.962837
H      -1.847055      1.750860     -0.725135
H      -1.286932      1.586010      0.955797
H      -2.519016     -0.423816      0.879295
H      -2.392953     -0.550103     -0.902807
H       0.852702     -1.417633      1.492136
H      -0.367375     -1.349540     -0.687130
