17
Extracted from Q-Chem output
C       1.989550     -0.180096     -0.647531
C       0.887005      0.348270      0.266098
O       0.038437      1.153268     -0.570490
C      -1.253504      1.209258     -0.013660
C      -1.796264     -0.188778      0.145818
C       0.042950     -0.630534      1.004161
O      -0.667661     -1.539320      0.005479
H       2.466814      0.642882     -1.180636
H       1.607840     -0.867377     -1.408953
H       2.745267     -0.703567     -0.060920
H       1.349217      0.979549      1.040117
H      -1.861095      1.772971     -0.729097
H      -1.251148      1.711976      0.959412
H      -2.361954     -0.386584      1.044033
H      -2.317459     -0.529720     -0.757428
H       0.619899     -1.260361      1.683107
H      -0.179765     -1.613559     -0.834151
