13
Extracted from Q-Chem output
C       1.540791      0.911019     -1.003412
O       1.152752      0.485761      0.286102
C       0.314323     -0.644046      0.263788
C      -1.533247     -0.799309     -0.383379
O      -1.822211     -1.936967     -0.477517
N      -1.884418      0.448349     -0.442989
H       0.673079      1.169543     -1.619240
H       2.118326      0.129014     -1.510884
H       2.164174      1.793638     -0.874190
H       0.295629     -1.085301      1.259523
H       0.649121     -1.383881     -0.466958
H      -0.744101      0.261953      0.200058
H      -2.867116      0.666147     -0.594149
