10
Extracted from Q-Chem output
N      -1.968277     -0.141021     -0.093675
C      -0.593216     -0.133043     -0.076056
N       0.089772     -1.183213     -0.485466
O       1.391271     -0.928475     -0.441550
C       1.526950      0.419593      0.066474
C       0.219093      0.975937      0.322165
H      -2.389027      0.532816      0.521366
H      -2.410196     -1.044417     -0.100391
H       2.134101      0.369905      0.976842
H       2.081687      1.004925     -0.674837
