10
Extracted from Q-Chem output
N      -1.915754     -0.094761     -0.170774
C      -0.553199     -0.170084     -0.063457
N       0.111533     -1.217342     -0.469938
O       1.437275     -0.979380     -0.286246
C       1.538378      0.312837      0.224833
C       0.268870      0.888999      0.512412
H      -2.347285      0.590683      0.422792
H      -2.414055     -0.962070     -0.271816
H       2.473521      0.495440      0.740486
H       1.442881      1.077262     -0.632602
