17
smiles: [C:1](=[C:2]([H:11])[H:12])([H:8])[H:10].[C:3]([C:4]([H:13])([H:14])[H:15])([O:5][H:16])=[C:6]=[C:7]([H:9])[H:17]
C        2.95495200       0.27293500      -0.37553200
C        1.91583200      -0.49137800      -0.66446600
C       -1.42371300      -0.42618800       0.42087000
C       -2.18077200      -0.81201900      -0.80654800
O       -1.30539100      -1.47120800       1.30105400
C       -0.92918800       0.76257500       0.64494900
C       -0.43796800       1.94848900       0.86618900
H        3.46268700       0.20646300       0.57997300
H        0.56814300       2.21507100       0.55524600
H        3.34081200       0.99856700      -1.08254700
H        1.52995200      -1.21701500       0.04253500
H        1.40808000      -0.42492300      -1.61996600
H       -3.18420500      -1.14525000      -0.53362500
H       -2.25790000       0.02823700      -1.49299600
H       -1.67758000      -1.64140200      -1.30783400
H       -0.81522100      -1.17566300       2.07216300
H       -1.01557900       2.71893800       1.36895900
