13
Extracted from Q-Chem output
O      -2.440998      0.214580      0.397163
C      -1.170067      0.103453      0.551399
C       0.709442     -1.219814     -0.386884
O      -0.469487     -0.529858     -1.247821
C      -0.216158      0.621502     -0.426109
C       1.197241      0.184502     -0.075762
O       1.633613      0.407708      1.245247
H      -2.658619      0.672948     -0.429146
H      -0.871219     -0.468782      1.417947
H       1.309163     -1.766189     -1.118942
H      -0.462259      1.590531     -0.871004
H       1.919065      0.651069     -0.757694
H       1.550136     -0.451605      1.674508
