14
Extracted from Q-Chem output
O       1.813466      1.013817     -0.183248
C       1.137294      0.103197     -1.016728
C      -0.327561     -0.042966     -0.669514
C      -0.703324     -0.703554      0.630069
N      -0.124331      0.037081      1.756534
C      -1.240170      0.476628     -1.451435
O      -2.042915      0.916804     -2.161502
H       1.545999      0.799858      0.721996
H       1.260073      0.452714     -2.042768
H       1.597342     -0.893654     -0.952504
H      -0.269388     -1.708100      0.648188
H      -1.790777     -0.823577      0.698924
H      -0.198044     -0.490733      2.615883
H      -0.610248      0.915378      1.888647
