11
Extracted from Q-Chem output
O       1.798576      0.743994     -0.358293
C       0.614259      0.211606      0.072157
C       0.215673     -1.255414      0.237351
C      -1.047026     -0.984942     -0.100039
C      -0.774827      0.493157     -0.311493
N      -0.207443      0.985162      0.996782
H       2.027375      0.341332     -1.199441
H       0.706241     -2.111510      0.681601
H      -1.966373     -1.551280     -0.040024
H      -1.159453      1.182176     -1.048185
H       0.054532      1.962727      0.861466
