11
Extracted from Q-Chem output
O       1.663168      0.713107     -0.567085
C       0.707327      0.232682      0.203733
C       0.326251     -1.212537      0.216963
C      -0.960886     -0.908422     -0.185275
C      -1.086060      0.491452     -0.061551
N      -0.063602      1.042536      0.959646
H       1.997985     -0.037267     -1.080264
H       0.697692     -1.975024      0.888631
H      -1.733376     -1.569513     -0.566146
H      -1.491003      1.215230     -0.753476
H       0.125163      2.022715      0.764987
