15
Extracted from Q-Chem output
C       1.450033      0.085297     -0.833305
C       0.512149      0.001084      0.359988
O       1.208883     -0.046649      1.578295
C      -0.566201     -1.080950      0.185359
O      -0.568966     -2.252227      0.417064
C      -1.624447     -0.052837     -0.187360
C      -0.645258      1.029734      0.339649
H       2.097314     -0.793580     -0.866116
H       0.900218      0.135290     -1.775724
H       2.071611      0.977328     -0.743304
H       1.553844     -0.937114      1.690881
H      -2.586238     -0.164525      0.310959
H      -1.786411     -0.010741     -1.266164
H      -0.495026      1.902550     -0.293014
H      -0.887685      1.344716      1.352986
