13
Extracted from Q-Chem output
C      -2.124131      0.161672     -0.215138
O      -1.276253     -0.775064      0.422436
C       0.071890     -0.610938      0.421145
C       0.630043      0.469060     -0.396377
N       1.888635      0.700287     -0.325770
C       3.034127      0.936892     -0.080175
N       0.822289     -1.374597      1.094627
H      -1.962112      1.174698      0.161759
H      -3.139721     -0.145395      0.024679
H      -2.000587      0.145283     -1.301562
H       0.045174      1.077018     -1.068347
H       3.873243      0.484295     -0.599390
H       0.265547     -2.045493      1.616418
