13
smiles: [C:1]1([H:8])([H:10])[C@@:2]([C:6]#[C:7][H:13])([H:11])[O:3]1.[C:4](=[O:5])([H:9])[H:12]
C       -1.10012300      -0.65081000      -0.20105900
C       -0.33138900       0.52021500       0.22734300
O        0.01777600      -0.20573200      -0.94111800
C        2.03339300      -1.77504900      -0.01833700
O        1.63903500      -1.92934600       1.09994800
C       -0.84653600       1.85834700       0.04830500
C       -1.26604700       2.97205100      -0.07708500
H       -0.97048700      -1.59043100       0.32801000
H        1.76757900      -2.47401100      -0.83440900
H       -2.06422100      -0.49750400      -0.67599700
H        0.36714200       0.40488200       1.05126400
H        2.68640400      -0.92582200      -0.29682900
H       -1.64020200       3.96164900      -0.19536700
