16
Extracted from Q-Chem output
C      -1.372960     -0.069268      1.287659
C      -1.308236      0.054411     -0.206781
N      -0.878430      1.335752     -0.769555
C      -0.049488      0.149821     -0.966766
C       1.289825      0.232995     -0.323655
C       1.817236     -1.373791      0.194428
O       2.357991     -0.966645     -0.911224
H      -0.593922      0.522507      1.768878
H      -2.332925      0.294583      1.658334
H      -1.254468     -1.111094      1.588871
H      -2.110716     -0.455584     -0.733354
H      -1.388075      1.578097     -1.609071
H      -0.020759     -0.308479     -1.949371
H       1.307534      0.474908      0.750511
H       1.948448      0.976340     -0.782238
H       2.585021     -1.363273      1.020187
