15
Extracted from Q-Chem output
C      -2.256960     -0.320144     -0.058039
C      -1.041773     -0.202771     -0.665553
C      -0.532541      1.109504     -0.832416
N       0.699009      1.086818     -0.384998
C       1.098620     -0.231790     -0.082952
N       2.410348     -0.421264      0.334357
C       0.087852     -1.060207     -0.408276
H      -2.977729      0.486472     -0.088379
H      -2.564213     -1.244233      0.412693
H      -0.209054      0.526234      1.872939
H      -1.075989      2.027955     -0.987645
H       1.312875      1.877322     -0.283987
H       2.535293     -0.052301      1.269289
H       2.655458     -1.399741      0.329703
H       0.034649     -2.108342     -0.164779
