15
smiles: [C:2]([C:3]#[N:4])(=[C:5]1[C:6]([H:12])([H:13])[C:7]1([H:14])[H:15])[H:10].[N:1]([H:8])([H:9])[H:11]
N        3.22751800      -0.58333700      -0.87536800
C        0.07594400       0.08385500      -0.07274400
C        0.62291800       1.35625300      -0.43270000
N        1.07398500       2.37202600      -0.72455000
C       -1.17083400      -0.03813300       0.33984300
C       -2.44081800       0.60072600       0.65093000
C       -2.24227000      -0.90672400       0.80843100
H        3.51276900      -1.00691100      -1.74808900
H        3.94917200      -0.77568500      -0.19378400
H        0.73295400      -0.77350600      -0.15472700
H        3.20175600       0.41750500      -1.01702200
H       -2.50068800       1.20345400       1.54936400
H       -3.05126100       0.95056600      -0.17308300
H       -2.72395200      -1.55934100       0.08987700
H       -2.17472700      -1.30911600       1.81232600
