11
Extracted from Q-Chem output
O      -1.920574      1.303306      0.908222
C      -0.873920      1.351530      0.313541
C       0.013597      0.175193      0.287223
C      -0.281701     -1.236634      0.478837
O       0.473515     -1.367667     -0.737015
C       1.164986      0.055784     -0.691021
O       0.755415      0.803136     -1.611443
H      -0.472012      2.264372     -0.147242
H       0.194474     -1.718299      1.337339
H      -1.322576     -1.546100      0.376556
H       2.217446     -0.083934     -0.429433
