17
Extracted from Q-Chem output
C      -2.704758      0.567272     -0.080531
C      -1.873572     -0.463244     -0.101448
C      -0.745560     -0.639639     -1.071923
C       0.624923     -0.718097     -0.394821
C       0.996171      0.577429      0.332162
C       2.313052      0.515357      0.958694
C       3.395888      0.445044      1.465804
H      -2.617740      1.376168     -0.799015
H      -3.502411      0.641558      0.648523
H       0.247062      0.803940      1.095399
H      -1.993464     -1.252185      0.639363
H      -0.902784     -1.562645     -1.638959
H      -0.755389      0.180682     -1.796339
H       0.641101     -1.546483      0.319294
H       0.977277      1.414326     -0.372973
H       1.388801     -0.939459     -1.143567
H       4.356445      0.390333      1.920339
