17
Extracted from Q-Chem output
C      -1.496625      1.017738      0.389372
C      -1.624254     -0.383044      0.029267
C      -1.039744     -0.876455     -1.210572
C       0.268502     -0.921150     -0.443749
C       1.150612      0.257940     -0.331425
C       2.048508      0.394752      0.748396
C       2.803748      0.473165      1.682960
H      -1.863050      1.709502     -0.374848
H      -1.947185      1.259691      1.350032
H      -0.382400      1.253012      0.447670
H      -1.994281     -1.105504      0.744496
H      -1.366310     -1.856621     -1.546332
H      -1.014372     -0.172214     -2.042281
H       0.391939     -1.702238      0.295084
H       1.214628      0.932112     -1.175970
H       1.286438     -0.974156     -1.092282
H       3.471385      0.552321      2.507038
