17
Extracted from Q-Chem output
C       1.282877     -0.176716      0.998402
C       1.695273      0.730901     -0.017003
C       1.152441     -0.583314     -0.448829
C      -0.235966     -0.367265     -1.010301
C      -1.329852     -0.899986     -0.034135
C      -1.283228      0.479579      0.597378
C      -0.526580      1.059430     -0.506042
H       1.938755     -0.705212      1.681284
H       0.277206      0.052018      1.496854
H       2.666413      1.183691     -0.156414
H       1.740365     -1.427382     -0.802912
H      -0.337298     -0.588595     -2.073127
H      -0.979739     -1.718855      0.597309
H      -2.293563     -1.176684     -0.468584
H      -1.715090      1.157409     -0.636570
H      -1.840213      0.943459      1.402951
H      -0.145156      2.044919     -0.726553
