10
Extracted from Q-Chem output
N      -1.510565      0.126864      0.215374
C      -0.204640      0.213705     -0.356606
C       0.813227      1.225162      0.099391
N       1.943149      0.526936      0.305004
N       1.750530     -0.800778      0.107441
N       0.562106     -1.032760     -0.232434
H      -2.206123      0.555922     -0.373707
H      -1.535206      0.583575      1.116348
H      -0.250497      0.412676     -1.438383
H       0.261304     -1.982349     -0.397898
