8
Extracted from Q-Chem output
O      -2.870249     -0.997184      0.182869
C      -1.839681     -1.023523     -0.431157
C      -0.657186     -0.274491     -0.046567
C       0.348497      0.313808      0.217719
C       2.487081      0.944743     -0.156076
O       1.399386      1.002422      0.609048
H      -1.720796     -1.629722     -1.345442
H       3.175455      1.600314      0.417431
