11
Extracted from Q-Chem output
C      -1.327869     -0.045978     -0.122948
C       0.000892     -0.157446      1.150889
C       0.197862      0.904848      0.246439
N       1.262871      0.686755     -0.644718
C       1.643072     -0.488703     -0.313947
O       0.962000     -1.080306      0.673014
H      -1.409900     -1.127572     -0.127453
H      -2.157697      0.402771      0.407831
H      -1.285520      0.298280     -1.158875
H      -0.223349      1.894181      0.346047
H       2.462773     -1.044144     -0.750332
