12
smiles: [C:1]1([H:7])([H:8])[O:2][C@@:3]12[C:4]([H:9])([H:10])[O+:5]=[C-:6]2.[H:11][H:12]
C        1.34845500       0.07982600      -0.30536300
O        1.15630300      -0.42792400       1.00276900
C        0.06566200       0.18036100       0.38303300
C       -0.73355400       1.37800300       0.86235800
O       -1.88697500       0.65656300       0.33090900
C       -1.25439800      -0.45922800      -0.00620800
H        1.47229700      -0.66821700      -1.08187300
H        1.97398200       0.96496300      -0.37483400
H       -0.59724400       2.34057600       0.36929500
H       -0.81945300       1.49315700       1.94174700
H       -0.61408200      -2.73499600      -1.62110400
H       -0.20104500      -3.17940800      -2.05268800
