12
Extracted from Q-Chem output
C      -1.276845      0.876361      0.280375
C      -0.435234     -0.342725     -0.046018
O       0.377030     -0.072154     -1.205298
C       0.588520     -0.737889      0.960487
C       1.880021     -0.717127      0.496683
C       1.614419     -0.299710     -0.827822
H      -0.634798      1.729580      0.500047
H      -1.891500      0.668778      1.156621
H      -1.934403      1.127221     -0.551673
H      -1.071439     -1.190594     -0.322830
H       0.272453     -1.013115      1.963862
H       2.324873     -0.129418     -1.634202
