12
Extracted from Q-Chem output
C      -1.169899      0.958608      0.116161
C      -0.661017     -0.452097      0.150056
O       0.224535     -0.869056     -0.904125
C       0.576022     -0.861510      0.818966
C       1.728478     -0.002404      0.800596
C       1.699363      0.033398     -0.485806
H      -0.350807      1.674035      0.075443
H      -1.769123      1.156210      1.006629
H      -1.805261      1.092132     -0.760107
H      -1.451853     -1.196487      0.239776
H       0.650732     -1.892793      1.151025
H       2.141928      0.259171     -1.438382
