15
Extracted from Q-Chem output
C      -2.291406     -0.178303     -0.285005
N      -0.901497      0.112958      0.004141
C      -0.187801     -0.424029      0.996147
N       1.005210      0.181579      1.075873
C       1.088814      1.159909      0.038384
C       2.398750     -0.280006      0.048005
C      -0.129388      1.044642     -0.629053
H      -2.412758     -0.346121     -1.354469
H      -2.595103     -1.074722      0.252009
H      -2.924124      0.654530      0.020264
H      -0.561007     -1.211326      1.633307
H       3.227699      0.229437      0.514131
H       2.336763     -1.325240      0.350355
H       2.443517     -0.218449     -1.036081
H      -0.518966      1.576594     -1.483284
