14
Extracted from Q-Chem output
O      -0.695494      2.082497      0.463619
C      -0.330103      0.814682      0.081905
C      -1.099620     -0.229506     -0.691046
N       0.194721     -0.980772     -0.845399
C       0.935345      0.320105     -0.542154
C       0.690780      0.053617      0.916743
C       0.472105     -1.398859      0.574952
H      -1.428848      0.127714     -1.668491
H      -1.904468     -0.788391     -0.206316
H      -0.858035      2.607740     -0.322883
H       1.744112      0.754769     -1.109179
H       1.155001      0.526120      1.771008
H       1.388469     -1.988179      0.606418
H      -0.342029     -1.951072      1.052151
