14
Extracted from Q-Chem output
O      -0.903817      2.108156      0.414106
C      -0.587793      0.832605      0.294085
C      -1.199511     -0.216072     -0.631293
N       0.138847     -0.820079     -0.893262
C       0.829485      0.490679     -0.551388
C       0.561934      0.137529      0.938366
C       0.507477     -1.307077      0.479331
H      -1.607697      0.235012     -1.533717
H      -1.920132     -0.902700     -0.183984
H      -0.034853      1.777001     -0.509969
H       1.806055      0.790947     -0.912978
H       1.054645      0.588446      1.789339
H       1.492127     -1.773186      0.449872
H      -0.214827     -1.990798      0.932818
