11
smiles: [C:1]1([H:8])([H:9])/[C:2](=[N:4]/[H:10])[O:3]1.[C:5](=[O:6])([H:7])[H:11]
C       -1.56422700      -0.00090900       0.12789500
C       -0.43731500       0.37907600       0.92125500
O       -1.62597000       0.51137800       1.52137800
N        0.78167300       0.54039700       1.10593000
C        1.55791200      -0.46616900      -1.44849700
O        0.51066200      -0.79131000      -1.92528100
H        1.97308000       0.55100300      -1.58391300
H       -1.96846500       0.68209400      -0.61083000
H       -1.83790900      -1.04545000       0.02926200
H        0.97199000       0.90095100       2.03827900
H        2.16873100      -1.16403000      -0.84427800
