10
smiles: [C:4](#[N:5])[H:9].[O:1]=[C:2]([N-:3][N+:7]#[C:6][H:10])[H:8]
O        3.00192100      -0.33311900       0.29817700
C        1.89183500      -0.77334200       0.36979800
N        0.75652400      -0.02757700       0.06691400
C       -1.09624100       2.14439900      -0.77605000
N       -2.19091900       1.81544400      -0.73928900
C       -1.34629300      -1.17289800       0.30960800
N       -0.31832300      -0.66858300       0.20756700
H        1.68508300      -1.81882200       0.68424000
H       -0.07373600       2.45210700      -0.81053000
H       -2.30985100      -1.61761000       0.38956400
