13
Extracted from Q-Chem output
C       2.018905      0.160852     -0.185477
C       0.544327     -0.038602     -0.086393
C      -0.397058      0.973368      0.426195
C      -1.614029      0.431219      0.359491
C      -1.455819     -0.943869     -0.201831
N      -0.038385     -1.122715     -0.443519
H       2.442390      0.385146      0.796340
H       2.489716     -0.735853     -0.583025
H       2.247876      1.005956     -0.838944
H      -0.128819      1.958972      0.781337
H      -2.553452      0.879518      0.652115
H      -2.010826     -1.079083     -1.136477
H      -1.813824     -1.718651      0.484841
