11
smiles: [H:7][H:11].[O-:1][C:2]1=[C:3]([H:8])[C@@:4]2([H:9])[N:5]([H:10])[C+:6]12
O        0.62127200      -0.85212700       2.11769300
C        0.20601700      -0.51019700       1.07058600
C        0.36536500      -0.86182900      -0.37545500
C       -0.66616900      -0.06465500      -0.90766600
N       -1.78793700      -0.20830100       0.03325900
C       -0.75918300       0.60946300       0.49938800
H        2.14801700       1.88876600      -0.19189100
H        1.35513600      -0.94480500      -0.81948100
H       -0.78525800       0.40927800      -1.86655900
H       -1.87079300      -1.15405700       0.42102400
H        1.43433200       2.02137200      -0.02592600
