11
Extracted from Q-Chem output
O       0.719834     -0.761846      2.074895
C       0.453623     -0.372417      0.986952
C       0.680415     -0.679930     -0.434608
C      -0.473041      0.004649     -0.934624
N      -1.671282      0.105379      0.006779
C      -0.501451      0.720974      0.379513
H       1.463111      1.052448     -0.021886
H       1.533624     -1.093644     -0.953028
H      -0.617041      0.442743     -1.907145
H      -1.926118     -0.718886      0.553184
H       0.535705      1.554220      0.215285
