16
Extracted from Q-Chem output
C       1.998955     -0.100725      0.497684
C       0.662251      0.242312      0.202180
C      -0.058979      1.474342     -0.179895
C      -0.681637      0.509700      0.804908
C      -1.519880     -0.539842      0.115654
C      -0.482392     -1.015835     -0.903572
H       2.211558     -0.806942      1.287940
H       2.807904      0.431436      0.018057
H       1.067485     -0.755185     -0.452089
H       0.388832      2.368512      0.235467
H      -0.499128      1.593283     -1.160954
H      -0.806685      0.801719      1.840928
H      -1.791765     -1.336128      0.809945
H      -2.440995     -0.150965     -0.325151
H      -0.608803     -0.673916     -1.929506
H      -0.272787     -2.087008     -0.874427
