15
smiles: [C:1]([O:2][H:12])([H:8])([H:9])[H:10].[C:3](=[O:4])=[C:5]([C:6]([O:7][H:15])([H:13])[H:14])[H:11]
C       -3.08261700      -0.14599400       0.18852200
O       -1.91409800      -0.52244000       0.88521700
C        0.27030200       0.03203600      -0.98953500
O       -0.40618100      -0.19893700      -1.89781800
C        1.03577300       0.31967400       0.03396800
C        2.51043300       0.51605800      -0.11600200
O        3.18796800      -0.62133200       0.39337200
H       -3.03218000      -0.40388000      -0.87556900
H       -3.98473000      -0.59617100       0.61824500
H       -3.16994100       0.93673700       0.27294000
H        0.56791500       0.32985700       1.00891700
H       -1.81653500      -1.47338000       0.83062500
H        2.75593300       0.67884800      -1.17198300
H        2.80819500       1.41496100       0.43607900
H        4.12967600      -0.43810500       0.39805000
