17
Extracted from Q-Chem output
C      -1.642948     -1.567537      0.210690
C      -0.954823     -0.602805     -0.691998
C       1.047514     -0.101216     -0.459611
C       1.999803      0.502693      0.545612
O       2.016068      1.905240      0.558479
C      -1.426502      0.774220     -0.621661
O      -0.367954      0.682809      0.313698
H      -2.389521     -2.083677     -0.403172
H      -0.959634     -2.332787      0.585349
H      -2.155928     -1.101619      1.061362
H       1.123861      0.348985     -1.442907
H       1.206477     -1.175674     -0.499141
H       3.002560      0.176534      0.248729
H       1.801540      0.088469      1.542774
H       1.112573      2.185338      0.727716
H      -2.355114      0.963511     -0.083945
H      -1.253639      1.461636     -1.450037
