14
Extracted from Q-Chem output
C      -1.186432      0.441547     -0.938815
C       0.112881      0.647075      0.394787
O       0.290933      1.917602      0.638655
C       0.003545     -0.514105      1.329116
C       1.125045     -0.460604      0.306156
O       1.114047     -1.473697     -0.651194
H      -2.152552      0.301754     -0.465645
H      -0.768018     -0.475975     -1.340524
H      -1.250351      1.163507     -1.765406
H      -0.603745      1.437937     -0.353297
H       0.221568     -0.316067      2.371132
H      -0.736718     -1.281211      1.140979
H       2.108502     -0.156311      0.657415
H       1.714691     -1.226247     -1.358017
