11
Extracted from Q-Chem output
C      -1.195535      0.386739     -0.060839
C      -0.238226     -0.565631     -0.692869
O       0.997778     -0.018992     -1.110107
C       1.580445      0.438163      0.021979
N       0.993089      0.253253      1.126303
C      -0.250224     -0.401060      0.807105
H      -1.021299      1.450183     -0.168921
H      -2.233235      0.080677     -0.054133
H      -0.544540     -1.426951     -1.268000
H       2.534057      0.930687     -0.116444
H      -0.622310     -1.127068      1.515925
