11
Extracted from Q-Chem output
C      -1.087093      0.273905     -0.088049
C      -0.294939     -0.434791     -1.115913
O       0.819945     -0.006203     -1.456215
C       1.828695      0.275059      0.201209
N       0.992628      0.021818      1.060839
C      -0.274475     -0.266678      1.074218
H      -1.032159      1.361343     -0.174859
H      -2.118815     -0.063717     -0.030003
H      -0.612689     -1.438894     -1.427693
H       2.476418      1.133465      0.088916
H      -0.700055     -0.851708      1.875005
