13
Extracted from Q-Chem output
N      -1.830419      0.589196     -0.131690
C      -0.454728      0.276413      0.032872
C      -0.028256     -1.047111      0.150291
O      -0.819499     -2.131160      0.083874
N       1.292850     -1.163922      0.286778
C       1.775087      0.205138      0.142930
C       0.688395      1.068041      0.015427
H      -1.982315      1.314447     -0.816719
H      -2.264497      0.872739      0.736012
H      -1.701924     -1.804734     -0.135684
H       1.852715     -0.732760     -0.744264
H       2.786863      0.418336      0.450059
H       0.736839      2.143495     -0.073269
