15
Extracted from Q-Chem output
C      -2.386751     -0.197142      0.038575
C      -0.920631      0.093206     -0.018605
C      -0.332513      1.299595     -0.295380
N       1.024178      1.131984     -0.255539
C       1.322399     -0.164249      0.042964
N       2.678928     -0.550641      0.127207
C       0.136196     -0.835176      0.197153
H      -2.669012     -0.962380     -0.688595
H      -2.685787     -0.560287      1.024800
H      -2.973607      0.696781     -0.177333
H      -0.777191      2.256290     -0.518583
H       1.723904      1.831191     -0.421270
H       2.919641     -0.884707      1.049252
H       2.906534     -1.271302     -0.542349
H       0.033714     -1.883161      0.437703
