15
Extracted from Q-Chem output
C      -1.929267      0.038076     -0.470877
C      -0.975162     -0.068145      1.143546
C      -0.657913      1.056619      0.354034
N       0.639718      0.986018     -0.135077
C       1.141044     -0.242642      0.225003
N       2.445380     -0.571461     -0.099344
C       0.195003     -0.910080      0.944594
H      -2.199110     -0.998633     -0.311513
H      -2.819983      0.652386     -0.389899
H      -1.469324      0.118840     -1.461229
H      -1.149660      2.019430      0.352554
H       1.114412      1.670733     -0.693885
H       2.656779     -1.543651      0.052991
H       2.756323     -0.264669     -1.006942
H       0.330284     -1.900729      1.356217
