10
Extracted from Q-Chem output
N      -1.770133     -0.043950     -0.143568
C      -0.385915      0.077285     -0.148251
N       0.478182     -0.940737     -0.402057
C       1.611421     -0.463888      0.068634
N       1.546356      0.780471      0.583324
N       0.287450      1.152873      0.500510
H      -2.206582      0.357184      0.670098
H      -2.065964     -0.989830     -0.319728
H       2.547935     -1.001481      0.020254
H      -0.043930      1.044397     -0.851061
