12
Extracted from Q-Chem output
C      -1.565721     -0.221422      0.614712
C      -0.438855      0.064810     -0.304215
C      -0.110324      0.635248     -1.436531
C       1.059728      0.751137     -0.537358
C       1.138478     -0.489835      0.636623
O       2.056812     -0.198992     -0.368988
H      -2.492332     -0.090341      0.056006
H      -1.528481     -1.239512      1.009110
H      -1.574958      0.471737      1.458328
H       1.332780      1.723819     -0.122495
H       0.815278     -1.524507      0.662885
H       1.356458     -0.044858      1.606545
