10
Extracted from Q-Chem output
N       1.529802     -0.460284      0.088438
C       0.207037      0.032575     -0.024443
N      -0.722245     -1.078045     -0.085944
N      -1.874585     -0.766755      0.200663
N      -0.122948      1.217312     -0.888407
C      -0.201475      1.349847      0.356611
H       2.216049      0.257986     -0.088739
H       1.675547     -1.237508     -0.541513
H      -2.448174     -1.611665      0.097583
H      -0.422334      2.122582      1.081773
