10
Extracted from Q-Chem output
N       1.477335     -0.409591     -0.026049
C       0.207914     -0.083632      0.192308
N      -0.732369     -1.013872      0.281712
N      -1.773997     -0.979657     -0.402331
N      -0.964082      1.603475     -0.722269
C      -0.171406      1.417300      0.178451
H       2.199947      0.270796      0.130337
H       1.736643     -1.288531     -0.438281
H      -2.422510     -1.650566      0.028869
H       0.399276      2.086708      0.838865
