12
Extracted from Q-Chem output
N       2.758370      1.222740     -0.058519
C       1.918650      0.455719      0.085442
C       0.842062     -0.527757      0.240714
O       0.043120     -0.347668      1.401248
C      -1.165127     -0.253086      0.585209
C      -1.381240      0.975327     -0.150762
C      -0.365826     -0.387010     -0.690391
H       1.268467     -1.534058      0.207332
H      -1.959045     -0.914590      0.906285
H      -0.670754      0.647694     -1.267472
H      -0.654376      1.734334      0.162947
H      -0.624326     -1.090726     -1.471402
