16
smiles: [C:1]([C:2]([C:3](=[O:4])[H:14])([H:11])[H:12])([H:8])([H:9])[H:10].[C:5](=[O:6])=[N:7][H:15].[H:13][H:16]
C       -2.49690000       0.59996200       0.26230100
C       -1.67120900       0.56059700      -1.02169200
C       -0.26675800       0.08928900      -0.76513500
O        0.72796300       0.66781500      -1.10439900
C        3.88362500      -1.12064900       0.08993800
O        5.01107300      -1.38795700       0.14093000
N        2.68999100      -0.94231500       0.13187000
H       -2.10323800       1.34020300       0.96086700
H       -3.53360800       0.85940800       0.04751700
H       -2.49565400      -0.36980200       0.76513100
H       -2.12077400      -0.15098600      -1.72416100
H       -1.62925800       1.53381300      -1.51193000
H        0.36559600       0.17487700       2.54312800
H       -0.19301600      -0.87419600      -0.21263100
H        2.18258400      -0.26265600      -0.40358400
H        0.96891300      -0.11708900       2.21886500
