12
Extracted from Q-Chem output
C       1.113433      0.133011     -0.994015
C       0.873408      0.535745      0.254430
C      -0.274413     -0.281236      0.769727
C      -0.740255     -0.997793     -0.471344
O       0.417815     -0.968993     -1.372977
C      -0.213475      1.221324      0.973486
H       1.768237      0.540717     -1.753113
H      -0.090156     -0.877408      1.657952
H      -0.988378     -2.041242     -0.288879
H      -1.568129     -0.513728     -0.998941
H      -0.853019      1.875615      0.391378
H      -0.060000      1.545083      1.997122
