12
Extracted from Q-Chem output
C       1.384040      0.020695     -0.650813
C       1.385979     -0.295368      0.628923
C      -0.165837     -0.322672      0.898609
C      -0.728774     -0.824497     -0.434052
O      -0.033891      0.188081     -1.202982
C      -0.396563      1.091453      0.575170
H       2.110097      0.105242     -1.444024
H      -0.477324     -0.718856      1.861089
H      -0.428570     -1.829059     -0.734303
H      -1.802359     -0.674553     -0.568178
H      -1.311831      1.451135      0.114445
H       0.280281      1.847302      0.960044
