11
Extracted from Q-Chem output
C      -0.661954      0.797336     -0.347786
C      -0.397966     -0.731918     -0.390899
O       0.853362     -0.439869     -1.063296
C       0.863579      0.675846     -0.153423
N       0.973602      0.036442      1.197314
C       0.138791     -0.904958      1.031654
H      -1.257156      1.213258      0.462948
H      -0.938936      1.195193     -1.322373
H      -1.033647     -1.468995     -0.873110
H       1.602526      1.443000     -0.359749
H      -0.122310     -1.643973      1.779959
