11
Extracted from Q-Chem output
C      -0.994366      0.670402     -0.371832
C      -0.265870     -0.673633     -0.485670
O       0.991153     -0.349645     -1.088326
C       1.289825      0.560273     -0.123156
N       1.000427      0.161946      1.136491
C       0.067223     -0.749457      0.947181
H      -1.123154      1.112114      0.605140
H      -1.843986      0.827935     -1.040467
H      -0.769096     -1.488070     -0.997626
H       2.071603      1.278585     -0.331658
H      -0.419230     -1.298216      1.740380
