12
Extracted from Q-Chem output
N       2.021595      0.140093     -0.071448
C       0.596193     -0.017278      0.040584
C       0.692740      1.277269      0.051259
N      -1.797656      0.691499     -0.008202
C      -1.723938     -0.600393      0.111616
O      -2.478373     -1.551581      0.243727
N      -0.254437     -0.995558      0.078736
H       2.444673     -0.144603     -0.945404
H       2.593300      0.010487      0.749418
H       0.680735      2.179439     -0.526604
H      -2.768018      0.976437      0.034864
H      -0.001869     -1.954797      0.243221
