9
Extracted from Q-Chem output
O      -0.926899      1.448802     -0.431748
C      -0.302333      0.347667      0.081892
C       1.087775      0.219311     -0.098637
C       2.278128      0.109706     -0.225517
C      -1.058180     -0.770060      0.441159
N      -1.760605     -1.636932      0.923617
H      -1.635204      1.717810      0.160264
H      -1.072198     -1.472995     -0.464018
H       3.332790      0.016621     -0.333981
