14
smiles: [C:1]([C:2]#[N:3])([H:8])([H:9])[H:10].[C:6](=[O:7])([H:11])[H:14].[O:4]=[C:5]([H:12])[H:13]
C       -2.29464500      -0.22679200      -0.31621600
C       -1.43606900       0.67957500      -1.06533000
N       -0.76023900       1.39292900      -1.65601200
O        0.32211700      -0.79559400       1.62088900
C        1.26559400      -1.42526800       1.24233900
C        1.94156300       1.18962800      -0.41043000
O        2.50775300       0.13805800      -0.47048400
H       -1.74831800      -0.64450700       0.52864500
H       -3.16689500       0.30910700       0.05624000
H       -2.62654800      -1.04000800      -0.96068900
H        1.19773400       1.40979500       0.37924700
H        2.23612500      -1.40314400       1.77408800
H        1.21941900      -2.06354600       0.33922000
H        2.13068200       1.99861400      -1.14193700
