13
Extracted from Q-Chem output
C       1.741649     -0.406999     -0.084940
C       0.459487      0.086569     -0.614639
C      -0.793297     -0.617422     -0.151528
C      -1.451084      0.655036      0.379124
O      -0.299548      1.514825      0.484652
H       2.556536      0.307784     -0.191609
H       1.690693     -0.785058      0.942617
H       1.976277     -1.265058     -0.732828
H       0.110335      1.387037     -0.554857
H      -1.322402     -1.116247     -0.966666
H      -0.616383     -1.343325      0.649958
H      -1.909083      0.552402      1.361583
H      -2.188648      1.078901     -0.309165
