10
Extracted from Q-Chem output
O       1.914992     -0.225296      0.842522
C       0.867704      0.142033      0.187432
C       0.325418      1.436281      0.002354
N      -0.998579      1.549363      0.109968
N      -1.683803      0.412051      0.381317
C      -1.131361     -0.655533     -0.113402
N       0.171521     -0.693807     -0.643395
H       2.125675     -1.143468      0.611972
H       0.157134      0.655183     -1.173398
H      -1.733932     -1.544435     -0.245794
