13
Extracted from Q-Chem output
N       1.848424     -0.726982      1.575923
C       1.245191     -0.262417      0.637770
C       1.075862      0.374744     -0.674724
C      -0.141683     -0.346527     -1.123477
C      -0.670720     -0.668974      0.274791
C      -1.056470      0.804333      0.352322
N      -0.201415      1.099439     -0.840744
H       1.912080      0.734254     -1.259517
H      -0.295024     -0.790665     -2.097411
H      -1.358363     -1.474663      0.521232
H       0.598676     -1.095894      1.335321
H      -2.085232      1.020906      0.061063
H      -0.808349      1.371803      1.254588
