15
Extracted from Q-Chem output
N      -2.333447     -0.503550     -0.207909
C      -1.297330     -0.210265      0.755136
C       0.678406     -0.694279     -0.535996
C       1.507368      0.447515     -0.417296
O       2.445039      0.461788      0.534733
C      -0.758268      1.057218      0.742662
N      -0.098605      2.015727      0.611604
H      -2.411326     -1.501929     -0.344611
H      -3.245421     -0.173780      0.084592
H      -1.316468     -0.704390      1.725550
H      -0.077193     -0.711949     -1.308007
H       0.858769     -1.547994      0.098623
H       1.417525      1.278166     -1.101730
H       1.740847     -0.636022     -1.276159
H       2.852350      1.330445      0.571440
