14
Extracted from Q-Chem output
C       1.485956     -0.417371     -0.534672
C       0.053943     -0.176111     -0.103166
C      -0.725256     -1.288713      0.480563
C      -0.947593     -0.896124     -0.936536
O      -1.595475      1.489393      0.627244
C      -0.246565      1.262254      0.285156
H       1.623755     -1.424777     -0.929907
H       2.159702     -0.299571      0.317858
H       1.776620      0.289378     -1.314696
H      -0.293167     -2.262808      0.686279
H      -1.577386     -1.038504      1.110519
H      -2.118333      1.510290     -0.177471
H       0.342475      1.523975      1.168036
H       0.068350      1.918539     -0.535839
