14
Extracted from Q-Chem output
C       1.475615     -0.434203     -0.617966
C       0.157063     -0.078642      0.002357
C      -0.757880     -1.122453      0.576692
C      -1.198191     -0.360084     -0.605329
O      -1.621364      1.257189      0.270827
C      -0.198455      1.312080      0.457275
H       1.428154     -1.408102     -1.108643
H       2.266859     -0.478034      0.134145
H       1.759073      0.303452     -1.371796
H      -0.456653     -2.138787      0.340103
H      -1.294230     -1.014097      1.511325
H      -1.833061      0.687236     -0.783859
H       0.027436      1.553732      1.499884
H       0.249682      2.075042     -0.189055
