14
Extracted from Q-Chem output
C      -1.622000      0.254450      0.215947
C      -0.499808     -0.696146      0.225569
C       0.912174     -0.008557      0.256029
N       1.950933     -0.934705     -0.098980
C       0.767075      1.273770     -0.551797
N      -0.329769      1.746882     -0.720229
H      -1.921757      0.682007      1.169928
H      -2.463480      0.019627     -0.430499
H      -1.327946      1.864557     -0.823423
H      -0.498479     -1.332850      1.114089
H      -0.526176     -1.349591     -0.650037
H       1.111404      0.353166      1.271588
H       1.903734     -1.171625     -1.081303
H       2.866720     -0.550097      0.081845
