13
Extracted from Q-Chem output
O       2.422908      0.567965      0.100517
C       0.608505      0.117148     -0.590047
C       0.146788     -1.251792     -0.161239
C      -1.194545     -0.546594     -0.045023
N      -1.116786      0.256423      1.149496
C      -0.527395      0.841394     -0.076977
H       2.283739      1.444677      0.471438
H       1.771375      0.520090     -0.897730
H       0.500191     -1.609879      0.804761
H       0.263555     -2.009296     -0.933026
H      -2.124601     -0.787901     -0.540524
H      -2.006739      0.729032      1.286210
H      -0.908154      1.781400     -0.452278
