14
Extracted from Q-Chem output
O       1.981540      1.218123     -1.042021
C       2.142791      0.554749     -0.056706
C       1.055729     -0.282284      0.576456
C       0.091139     -0.921855     -0.363172
C      -1.280386     -0.848745      0.113361
C      -1.436739      0.509363     -0.661985
H       3.114080      0.571929      0.478309
H       1.520863     -1.155921      1.057128
H       0.629491      0.318660      1.402183
H      -0.528957      0.772668     -1.230570
H      -1.952615     -1.602353     -0.288934
H      -1.456441     -0.696779      1.184836
H      -2.233982      0.426282     -1.394792
H      -1.625252      1.316552      0.042065
