11
Extracted from Q-Chem output
N       2.745220      0.219339     -0.079522
C       1.398896      0.304085     -0.053099
C       0.200955      0.336832     -0.015752
C      -1.251320      0.333910      0.046240
C      -1.909140     -1.029115      0.127831
O      -1.343279     -2.081693      0.127079
H       3.158670      0.239149     -0.997317
H       3.226505      0.810466      0.577958
H      -1.600338      0.905112      0.914705
H      -1.692670      0.842379     -0.819881
H      -3.018123     -0.978743      0.185828
