11
Extracted from Q-Chem output
N       2.098627     -0.220555      0.154723
C       0.748428      0.043145     -0.026042
C       0.056443      1.189608     -0.292275
C      -1.362870      0.650020     -0.178029
C      -1.291860     -0.751640     -0.014870
O      -0.046911     -1.096962      0.127183
H       2.474283     -0.908985     -0.481837
H       2.620841      0.639936      0.100202
H      -1.097877      1.037434      0.864181
H      -2.250576      1.157303     -0.531240
H      -2.030711     -1.538101      0.017093
