11
Extracted from Q-Chem output
C      -1.336036     -0.404227      0.120430
N      -0.309815     -0.196160     -0.769136
C       0.240715      1.123746     -0.641935
N       1.255934      1.089879      0.103717
C       1.315928     -0.329542      0.443710
N       0.677154     -1.086473     -0.470264
H      -2.201262      0.249709      0.047489
H      -1.493008     -1.435364      0.408646
H       0.132052     -0.277875      1.230517
H      -0.253745      1.984326     -1.069513
H       2.211254     -0.684847      0.937341
