16
Extracted from Q-Chem output
C       1.847087      2.087392      0.033695
C       0.695047      0.152838     -0.430066
N       1.336243      1.028487      0.485272
C       0.771757     -1.336964     -0.123068
C      -0.485352     -0.596653      0.053228
C      -1.499679     -0.396979      1.099876
C      -1.906235     -0.707508     -0.329385
H       2.341506      2.773349      0.717946
H       1.823789      2.360111     -1.028828
H       0.711892      0.440808     -1.482335
H       1.332381     -1.606702      0.763070
H       0.875188     -2.008451     -0.966642
H      -1.659342      0.610311      1.463598
H      -1.631375     -1.174247      1.842191
H      -2.304164     -1.693161     -0.538112
H      -2.345855      0.092513     -0.912475
