17
Extracted from Q-Chem output
C       1.836054     -0.329717      0.125568
C       0.542672      0.411779      0.443896
C       0.036628      1.185730     -0.791396
C      -1.440469      1.469534     -0.882517
O      -2.159769      0.431749     -0.570252
C      -1.549895     -0.815682     -0.140498
C      -0.553042     -0.535488      0.958480
H       2.252710     -0.797168      1.020639
H       2.589357      0.346930     -0.283366
H       1.660701     -1.117250     -0.613609
H       0.754734      1.146636      1.223378
H       0.585447      2.116935     -0.924194
H       0.230102      0.591631     -1.701162
H      -1.091165     -0.087346      1.796796
H      -1.080969     -1.281859     -1.011910
H      -2.380420     -1.438983      0.183861
H      -0.125719     -1.474698      1.318195
