10
Extracted from Q-Chem output
C      -1.509830      0.075226      0.055354
C      -0.056063     -0.127644     -0.150914
N       0.476215     -0.574552     -1.226792
O       1.855306     -0.556019     -0.990711
C       2.086119     -0.196633      0.266311
N       0.902922      0.081536      0.853983
H      -2.059951     -0.196797     -0.842467
H      -1.855988     -0.530917      0.892685
H      -1.707965      1.120568      0.296224
H       1.857734      0.914366      0.863945
