12
Extracted from Q-Chem output
O       2.413433     -0.561445     -0.781203
C       1.099251     -0.531226     -0.411440
C      -1.139427     -0.148606      1.004452
C      -1.494193      0.106809     -0.282812
C       0.510363      0.612512     -0.017758
O       0.662181      1.785231      0.174095
H       2.784792      0.321689     -0.704420
H       0.600663     -1.481156     -0.462799
H      -0.993566     -1.159717      1.360126
H      -1.122010      0.635894      1.748532
H      -1.770952      1.102139     -0.602720
H      -1.644204     -0.691765     -0.996869
