13
Extracted from Q-Chem output
C      -1.888122      0.199958     -0.202778
C      -1.069032     -0.760421      0.663449
C      -0.430153      0.163753     -0.273190
C       0.682114      0.623708     -0.801760
C       2.052422      0.137905     -0.444107
H       0.611583      1.407782     -1.551810
H      -2.459153     -0.225440     -1.020247
H      -2.365857      1.038377      0.291414
H      -1.104686     -1.815174      0.414220
H      -1.008311     -0.551897      1.725756
H       2.672184      0.953599     -0.062607
H       2.003743     -0.642132      0.316229
H       2.563846     -0.268326     -1.320881
