9
Extracted from Q-Chem output
O       2.006257     -0.340422     -0.286593
C       0.687962     -0.208409     -0.074160
N       0.138055      0.891316      0.193025
N      -1.201989      0.931010      0.476329
C      -0.697208     -2.334095     -0.257153
N       0.007550     -1.404537     -0.188416
H       2.398451      0.531778     -0.168303
H      -1.551548      1.855841      0.285808
H      -1.751352      0.220720      0.003940
