11
Extracted from Q-Chem output
O       2.716047     -0.863493      0.120682
C       1.452431     -0.521639      0.068366
N       1.283134     -1.761555      0.051812
C      -1.530554     -0.218709     -0.043017
C      -0.535797      0.887889     -0.002069
C       0.789026      0.760503      0.047520
H      -1.071806     -1.204554      0.013058
H      -2.237414     -0.113181      0.783336
H      -2.113363     -0.158308     -0.965626
H      -0.938710      1.896791     -0.016552
H       1.444153      1.621898      0.073837
