12
Extracted from Q-Chem output
O       0.402307     -2.069427      1.716036
C      -0.201758     -1.507224      0.869931
C       0.221506     -0.655694     -0.385240
N      -1.238033     -0.581266     -0.520328
C      -1.704058     -1.273861      0.500962
C       0.389214      1.795961      0.060538
C       0.955163      0.614070     -0.126564
H       0.696257     -1.245307     -1.174355
H      -1.781425     -0.118987     -1.236040
H      -0.686043      1.931937      0.022935
H       0.986771      2.673840      0.267812
H       2.033778      0.508674     -0.065746
