12
Extracted from Q-Chem output
O       2.203278     -0.745356      0.514114
C       1.094478     -0.368935      0.256140
C      -0.040332     -1.237215     -0.282277
C      -1.175840     -0.267542     -0.425118
C      -0.844114      0.963764     -0.053661
C       0.579241      1.060001      0.409799
H      -0.244403     -2.053160      0.416859
H       0.265277     -1.700720     -1.224591
H      -2.152713     -0.556933     -0.791035
H       0.682867      1.379924      1.450609
H      -1.513326      1.814320     -0.076695
H       1.192546      1.739152     -0.189150
