13
Extracted from Q-Chem output
C       1.070521     -0.319931      0.808089
C      -0.254437     -0.459874      0.115259
C      -0.217282      1.620054     -0.993142
N      -0.829365      0.357149     -0.663520
C      -1.040444     -1.720325      0.346819
O      -0.677181     -2.621275      1.052291
H       1.877417     -0.189908      0.085030
H       1.073918      0.546102      1.472280
H       1.268467     -1.212680      1.398119
H       0.737130      1.822525     -0.498967
H      -0.071456      1.657602     -2.075002
H      -0.922493      2.416163     -0.746366
H      -2.000162     -1.738918     -0.201863
