18
Extracted from Q-Chem output
C       1.938840      0.677572      0.755162
C       1.673847      0.043954     -0.418112
C      -0.233283     -1.244273     -0.316565
C      -0.812687     -1.241062      0.883957
C      -1.507266     -0.470743     -0.196127
C      -1.568937      1.040798     -0.221147
H       1.665245      1.715916      0.903138
H       0.711140      0.223729      1.826314
H       2.668510      0.276149      1.448506
H       2.209176     -0.860265     -0.673809
H       1.202169      0.569235     -1.237863
H       0.197292     -1.953460     -1.000815
H       0.010767     -0.229090      1.812848
H      -1.061910     -1.935281      1.670174
H      -2.401737     -0.927900     -0.628307
H      -2.463949      1.397387      0.294412
H      -1.612154      1.409224     -1.249577
H      -0.703659      1.491304      0.263011
