15
Extracted from Q-Chem output
O       2.439240      0.595255      0.452164
C       1.823337     -0.371032     -0.378342
C       0.346730     -0.575059     -0.075065
C      -0.501712      0.657800     -0.362193
C      -1.975655      0.455553     -0.110898
C      -2.494467     -0.667884      0.315184
O      -2.960681     -1.659958      0.691934
H       2.168209      1.469795      0.170203
H       2.363672     -1.302416     -0.201879
H       1.958048     -0.114247     -1.437905
H       0.241671     -0.861835      0.975783
H      -0.157120      1.490716      0.259524
H      -0.356347      0.961579     -1.405228
H      -0.011202     -1.416746     -0.678254
H      -2.682560      1.259208     -0.273744
