15
Extracted from Q-Chem output
O       2.601004      0.032707      0.219106
C       1.450883     -0.592643     -0.311903
C       0.180406     -0.064492      0.300992
C      -0.560478      1.141920     -0.234989
C      -1.833188      0.351238     -0.247497
C      -1.311080     -0.958744     -0.055412
O      -1.689960     -2.051516      0.357972
H       2.602961      0.955780     -0.041179
H       1.546484     -1.655080     -0.083057
H       1.411536     -0.488573     -1.406386
H       0.215774     -0.082981      1.387998
H      -0.634258      1.941552      0.507925
H      -0.223171      1.579241     -1.177019
H      -0.794236     -0.873356     -1.109259
H      -2.845333      0.718686     -0.080951
