10
Extracted from Q-Chem output
C      -1.246364      0.272833      0.208550
C       0.086468     -0.228986     -0.283138
C       1.815183      0.099980      0.406936
O       0.838145     -0.810183      0.777518
H      -1.824169     -0.565203      0.599528
H      -1.804499      0.741601     -0.602864
H      -1.098379      0.997275      1.008594
H       0.062317     -0.896857     -1.144270
H       2.340183     -0.377899     -0.464942
H       0.680221      0.709785     -0.589346
