14
Extracted from Q-Chem output
C      -1.337033     -1.449184      0.098808
C      -0.576540     -0.160731     -0.051939
C       0.817618     -0.167403     -0.519099
C       1.734154      0.791308      0.094893
O       1.346260      1.626611      0.967197
C      -1.190180      1.080563      0.013484
N      -1.565463      2.183902      0.105849
H      -2.368205     -1.243341      0.385534
H      -0.915905     -2.105355      0.868635
H      -1.375822     -2.027060     -0.833772
H       0.378548      1.489678      1.147144
H       1.293810     -1.155468     -0.501234
H       0.951859      0.147708     -1.584721
H       2.760354      0.926517     -0.239222
