12
Extracted from Q-Chem output
N      -2.012204     -0.104885      0.065582
C      -0.681392     -0.258725      0.107696
C       0.229037      0.863400     -0.327569
N       1.515190      0.311242      0.019818
C       1.296685     -0.975157      0.430647
C      -0.016969     -1.392320      0.570425
H      -2.461897      0.704691     -0.317337
H      -2.572732     -0.879762      0.374821
H       0.021938      1.792562      0.209720
H       2.359384      0.600111     -0.442037
H       2.185400     -1.568439      0.633060
H       0.152362      1.053404     -1.402326
