13
Extracted from Q-Chem output
C       0.403852     -0.675279      0.469533
C      -0.967306     -0.943465     -0.147566
O      -1.979009     -0.075327      0.307927
C      -0.043368      2.716984     -0.166966
N       0.512943      1.695600     -0.177528
C       1.196706      0.442465     -0.198922
H       0.273747     -0.458409      1.532308
H       1.013085     -1.580248      0.394362
H      -0.893817     -0.927390     -1.244681
H      -1.293139     -1.945165      0.136365
H      -1.786291      0.820534      0.022385
H       2.158802      0.581973      0.296131
H       1.393382      0.197466     -1.245158
