13
Extracted from Q-Chem output
C       0.515555     -0.686284      0.496139
C      -0.908526     -0.869191     -0.058751
O      -1.749566      0.153964      0.365897
C      -0.779388      1.739260     -0.331900
N       0.387450      1.603766     -0.451020
C       1.262359      0.468634     -0.156445
H       0.426510     -0.517723      1.571440
H       1.103811     -1.595809      0.349114
H      -0.864655     -0.944456     -1.160622
H      -1.302161     -1.827939      0.299473
H      -1.868428      1.439892     -0.280043
H       2.075534      0.845644      0.463073
H       1.696487      0.178664     -1.115110
