18
Extracted from Q-Chem output
C      -2.153848     -0.387362     -0.222138
C      -1.054713      0.238182      0.623587
C       0.195996      0.667041     -0.099868
C       1.188846      1.390589      0.619078
C       1.788750     -0.410723     -0.124480
C       0.812973     -1.209072     -0.784690
H      -2.412108      0.259854     -1.063745
H      -1.862642     -1.356761     -0.623059
H      -3.056903     -0.524094      0.374911
H      -1.423978      1.168317      1.074741
H      -0.784338     -0.407972      1.463233
H       0.036766      0.994573     -1.120851
H       1.795008      2.132022      0.123101
H       1.239663      1.313692      1.695488
H       2.119671     -0.737472      0.852234
H       2.576055      0.039053     -0.714917
H       0.299346     -1.987003     -0.242390
H       0.696000     -1.166984     -1.856589
