14
smiles: [C:6]([H:13])[H:14].[O:1]([C@@:2]1([H:8])[C:3]([H:9])([H:10])[C:4]([H:11])([H:12])[O:5]1)[H:7]
O        0.78508900      -1.14518600      -1.59365100
C        0.22880600      -0.07630800      -0.92598600
C       -1.28711900      -0.04128700      -0.67849700
C       -0.89559700       0.15596700       0.78670500
O        0.48830900      -0.08842900       0.48182100
C        1.52714200       0.92257900       1.08358900
H        0.51283100      -1.95438000      -1.15113100
H        0.64380000       0.81667800      -1.40156400
H       -1.76722500      -0.99710900      -0.88794400
H       -1.84123200       0.75946300      -1.16344800
H       -1.28395200      -0.56292600       1.51089500
H       -1.04771900       1.16967900       1.16633900
H        1.49197500       0.63654200       2.15541800
H        2.44698700       0.40853400       0.73507400
