12
Extracted from Q-Chem output
C       1.062727      0.776754      1.025745
N       0.803328      0.442898     -0.363668
C      -0.195623     -0.430929     -0.727012
N      -0.041264     -1.263088     -1.670974
C      -1.536639     -0.251827     -0.037568
O      -2.417238     -1.055978     -0.148890
H       1.821368      1.557106      1.063343
H       0.168685      1.176710      1.503501
H       1.413498     -0.078369      1.613929
H       1.634616      0.275321     -0.911236
H      -0.918643     -1.750396     -1.839944
H      -1.683551      0.679413      0.539174
