11
Extracted from Q-Chem output
C       0.835881      1.089836      1.163824
C       0.987235      0.935123     -0.081063
C       0.496781      0.223570     -1.137368
C      -1.015963     -1.008003     -0.336307
C      -0.889598     -0.583238      0.952181
N      -0.399411      0.080149      1.802984
H       1.223334      1.650812      1.990518
H      -0.107979      0.750612     -1.868801
H       1.120924     -0.557799     -1.559701
H      -1.908686     -0.699202     -0.869239
H      -0.677164     -2.014078     -0.558371
