13
Extracted from Q-Chem output
C      -1.672481     -0.378051      0.345664
C      -0.393118     -0.157406     -0.421907
C       0.462028      1.084366     -0.083900
C       1.474633      0.140398      0.207380
O       2.710031      0.459485      0.134193
N       0.765800     -1.002697      0.056623
H      -2.071783     -1.379284      0.169983
H      -1.499721     -0.256817      1.416170
H      -2.424771      0.348429      0.031755
H      -0.531845     -0.307161     -1.495572
H       1.947918      1.333724     -0.457417
H       0.135440      1.883817      0.567419
H       1.131839     -1.809543     -0.430190
