10
Extracted from Q-Chem output
C      -1.388143      0.081060      0.260276
N       0.010544     -0.135138     -0.013869
N       1.054720      0.438957      0.618884
C       2.217172      0.021183      0.100061
N       1.787702     -0.846534     -0.895071
N       0.489957     -0.911331     -0.931375
H      -1.620726     -0.200059      1.287720
H      -1.943729     -0.553087     -0.424970
H      -1.651601      1.124932      0.087316
H       0.901218      1.082702      1.376270
