10
Extracted from Q-Chem output
O       1.555147      0.879398      1.072847
C       0.674618      0.282190      0.261350
O       0.504920      0.736861     -1.046971
C      -0.678615      0.458079     -0.237725
C      -0.756662     -1.055323     -0.183570
O       0.609321     -1.109987      0.321616
H       1.986979      1.584790      0.583974
H      -1.437743      1.220609     -0.157711
H      -1.454259     -1.436485      0.562390
H      -0.851913     -1.576424     -1.135764
