10
Extracted from Q-Chem output
O       2.678439      0.049877     -0.146524
C       1.496594      0.027880     -0.082139
O       0.712551      1.113593      0.086576
C      -0.655661      0.746487     -0.045940
C      -0.618163     -0.770603      0.115090
O       0.739845     -1.086699     -0.166887
H      -1.232318      1.251571      0.726449
H      -1.011552      1.057285     -1.030270
H      -0.852516     -1.089706      1.132725
H      -1.257218     -1.299686     -0.589080
