12
smiles: [H:9][H:10].[O:1]=[C:2]1[C:3]([H:7])([H:8])[C-:4]=[O+:5][C:6]1([H:11])[H:12]
O        0.78046100       2.19737600       0.77627500
C        0.54410900       1.16184400       0.22294800
C       -0.75862800       0.67507100      -0.37093600
C       -0.49688200      -0.68997500      -0.95069100
O        0.75928100      -0.96589300      -0.72786400
C        1.53087900       0.04354800      -0.03018000
H       -1.13360700       1.34739900      -1.14773100
H       -1.55475700       0.61396300       0.37659200
H       -2.16770400      -2.40319800       1.41535300
H       -2.00218000      -2.27955800       0.69995600
H        2.35927500       0.35470900      -0.66615900
H        1.91914400      -0.38495300       0.89357800
