15
Extracted from Q-Chem output
C      -1.778649     -0.401816     -0.912263
C      -0.797808     -0.154943      0.203172
C      -1.351783      0.393292      1.491638
C       0.470921     -0.399770      0.059750
C       1.747742     -0.654826     -0.080650
C       2.693580      0.301823     -0.565440
C       3.509710      1.082518     -0.967882
H      -2.286175      0.528326     -1.180887
H      -2.545933     -1.111433     -0.591576
H      -1.288665     -0.797956     -1.799790
H      -2.095843     -0.293063      1.904560
H      -0.570362      0.548077      2.233335
H      -1.853570      1.347581      1.311077
H       2.130063     -1.637910      0.179805
H       4.228470      1.781997     -1.323134
