17
Extracted from Q-Chem output
C      -1.191880     -1.249343      0.480158
C      -0.609000     -0.043877     -0.208203
C       0.835050     -0.150886     -0.654474
C       1.824535      0.040842      0.490968
O       1.881003      1.376991      0.934086
C      -1.501512      0.915250     -0.855894
O      -0.939005      1.207546      0.416300
H      -1.234375     -2.096902     -0.206908
H      -0.581403     -1.539470      1.337459
H      -2.199343     -1.036377      0.836448
H       1.048854      0.601439     -1.417300
H       0.987144     -1.133176     -1.111165
H       2.830096     -0.218274      0.153584
H       1.580066     -0.637513      1.321041
H       0.976069      1.698166      1.008765
H      -2.574063      0.741900     -0.848354
H      -1.132236      1.523684     -1.676510
