14
Extracted from Q-Chem output
C      -0.854102     -0.908283     -0.145982
C      -1.027994      0.444548     -0.630550
C      -0.166005      1.210097      0.398322
C       1.094768      0.790661      0.471915
C       1.421117     -0.449283     -0.329893
O       0.353126     -1.402946     -0.064267
H      -1.349957     -0.111910      1.552703
H      -1.638224     -1.626399      0.052510
H      -0.561922      0.590043     -1.608395
H      -2.068439      0.754867     -0.656340
H      -1.006430      0.715896      1.520953
H       1.766700      1.074981      1.271167
H       2.334930     -0.955702     -0.028655
H       1.446201     -0.273311     -1.408198
