18
Extracted from Q-Chem output
C      -1.538696      0.947957      0.591864
C      -0.649432     -0.000634     -0.207053
C      -1.246897     -1.403512     -0.269543
C       0.751810     -0.034718      0.360404
C       1.913886     -0.386636     -0.515895
C       1.745626      1.020360     -0.015317
H      -1.116193      1.954443      0.617957
H      -2.540295      1.010137      0.160453
H      -1.642277      0.602783      1.624688
H      -0.576400      0.384214     -1.232334
H      -0.619033     -2.071760     -0.862302
H      -1.334931     -1.831373      0.733345
H      -2.244410     -1.391153     -0.714471
H       0.805742     -0.393536      1.385031
H       2.715055     -0.985046     -0.102625
H       1.711516     -0.574858     -1.563691
H       1.432179      1.772686     -0.729386
H       2.432750      1.380645      0.738874
