18
Extracted from Q-Chem output
C      -1.634497      0.643814      1.100163
C      -0.585339      0.146840      0.155648
C      -0.989948     -0.990258     -0.725056
C       0.773846      0.404233      0.445883
C       1.864060     -0.754891      0.067273
C       1.790398      0.481063     -0.652787
H      -1.293689      1.510817      1.665662
H      -2.538921      0.913644      0.552337
H      -1.915968     -0.139987      1.813530
H      -0.328456      1.191134     -1.494679
H      -0.327604     -1.094448     -1.584357
H      -0.954164     -1.927914     -0.153037
H      -2.012895     -0.863805     -1.080249
H       0.957845      1.024466      1.316640
H       2.697360     -0.994943      0.727604
H       1.304252     -1.628057     -0.247107
H       0.485592      1.010193     -1.641685
H       2.624638      1.157239     -0.475812
