14
smiles: [C:2](=[C:3]=[C-:4][C@@:5]1([H:11])[C+:6]([H:12])[N:7]1[H:14])([H:9])[H:10].[O:1]([H:8])[H:13]
O        0.76848000      -1.81985900       1.49666000
C        2.13302400       1.38171100      -0.43966200
C        0.87710200       1.14915100      -0.11307500
C       -0.31619900       0.93850900       0.21259400
C       -1.64010200       0.65441900       0.40897900
C       -2.07803200      -0.54020500      -0.41675400
N       -1.89524800      -0.76241000       0.88906400
H        1.06630800      -0.95110900       1.22382200
H        2.81202800       0.56822500      -0.66127200
H        2.51444000       2.39349800      -0.49271300
H       -2.35906000       1.39281800       0.73109000
H       -1.52148600      -1.07049700      -1.19147500
H        1.43514600      -2.42945100       1.17776700
H       -1.10141300      -1.33150600       1.20148600
