16
smiles: [H:12][H:15].[N:1]([C:2](=[O:3])[C:4](/[C:5](=[C:6](\[O:7][H:16])[H:14])[H:13])([H:10])[H:11])([H:8])[H:9]
N        1.25851400       0.29571300       1.83099600
C        1.56198300      -0.86004800       1.19155600
O        2.33921400      -1.67356700       1.64339700
C        0.89085100      -1.06510400      -0.16348200
C       -0.40087000      -0.34079700      -0.38252900
C       -0.54917300       0.72351700      -1.16095500
O        0.49226100       1.28640000      -1.83176100
H        1.72433800       0.50093900       2.69592600
H        0.62832600       0.96245200       1.42554000
H        1.62572400      -0.76360800      -0.91363200
H        0.75651300      -2.14227000      -0.26810000
H       -3.96852200       0.08342900      -0.57901800
H       -1.28928400      -0.70759700       0.11744800
H       -1.51673500       1.19808600      -1.29542700
H       -3.95569400       0.44833500       0.07001900
H        0.17600300       1.99244000      -2.39504800
