16
Extracted from Q-Chem output
C      -1.283433     -0.049765      1.116972
C      -1.307411      0.235393     -0.369320
N      -0.546745      1.673319     -1.070051
C       0.137996      0.524226     -1.054800
C       1.351299      0.321569     -0.156039
C       1.742958     -1.109156      0.078946
O       1.098084     -2.061145     -0.270307
H      -0.929868      0.819759      1.669601
H      -2.299690     -0.263390      1.451604
H      -0.665917     -0.913799      1.359556
H      -1.678846     -0.568665     -1.003849
H      -2.007269      1.069395     -0.584624
H       0.231284     -0.078373     -1.974675
H       1.234564      0.823811      0.808394
H       2.205051      0.817857     -0.632515
H       2.702173     -1.252228      0.619358
