16
Extracted from Q-Chem output
C      -1.166229     -0.976829      1.240430
C      -1.687015     -0.224308      0.082747
C       1.166991      1.093362      0.587667
C       0.595018      0.759690     -0.763948
C       0.533423     -0.595974     -1.305088
C      -0.807487      0.105074     -0.992060
H      -1.161066     -0.254094      2.068656
H      -1.915246     -1.712018      1.546144
H      -0.182271     -1.463085      1.189791
H       0.649306      1.939044      1.042874
H       2.216006      1.371746      0.465157
H       1.131073      0.255274      1.279986
H       0.743543      1.547786     -1.493828
H       0.808440     -1.416825     -0.655588
H       0.724061     -0.761815     -2.356922
H      -1.282805      0.533458     -1.868036
