16
Extracted from Q-Chem output
C      -1.945770     -0.255444     -0.604941
C      -0.999726     -1.101759      0.156209
C       0.345681      0.787569      0.714481
C       1.625187      0.591172     -0.042987
O       1.341379      0.035970     -1.312015
C      -0.195948     -0.716058      1.263610
N       0.433053     -1.098572      2.232267
H      -1.470916      0.241300     -1.461771
H      -2.433735      0.497229      0.014073
H      -2.715052     -0.912602     -1.018780
H      -0.669560     -2.009846     -0.341722
H      -0.397556      1.309728      0.116876
H       0.520997      1.329848      1.637716
H       2.287835     -0.052371      0.543745
H       2.103338      1.575004     -0.150812
H       2.148916     -0.314479     -1.688391
