12
Extracted from Q-Chem output
N       1.608432      1.253248      1.742065
C       1.474208      0.106561      0.917068
C      -1.526768     -0.588415     -0.788269
O      -1.914689     -1.487269     -1.779273
C       0.622738     -0.026677     -0.067530
N      -0.149723     -0.151174     -1.007075
H       2.559790      1.594414      1.751000
H       0.997156      2.003861      1.456581
H       2.080794     -0.751196      1.180676
H      -2.147703      0.316172     -0.794257
H      -1.643648     -1.101470      0.169322
H      -1.699483     -1.098356     -2.631019
