19
Extracted from Q-Chem output
C       2.296820      0.148870     -0.225899
C       0.970348     -0.354874      0.306305
O       1.212784     -0.804810      1.630970
C      -0.092392      0.733020      0.305540
C      -0.693765      1.094081     -1.045539
C      -1.544262      0.478131      0.502321
C      -2.004884     -0.933101      0.219076
H       2.210913      0.438821     -1.274648
H       3.054311     -0.630719     -0.140731
H       2.630696      1.013621      0.350975
H       0.641830     -1.198147     -0.315191
H       0.378502     -1.058319      2.030151
H       0.273682      1.605083      0.847809
H      -0.521666      0.360807     -1.827863
H      -0.545856      2.127225     -1.343831
H      -1.844503      1.137874     -0.779589
H      -1.392156     -1.560223     -0.439833
H      -3.035478     -0.951053     -0.136072
H      -2.024468     -1.415219      1.203370
