15
Extracted from Q-Chem output
O       1.517907      1.072201     -1.272019
C       1.909444     -0.017033     -0.451399
C       0.853688     -1.082961     -0.300636
O      -2.591126     -0.560031      1.809075
C      -2.147292      0.432450      1.301578
C      -1.033613      0.468107      0.288532
C      -0.418843     -0.867149      0.009477
H       1.231100      0.718638     -2.116661
H       2.833318     -0.467545     -0.830578
H       2.148932      0.423267      0.520761
H       1.174393     -2.107532     -0.462374
H      -2.565663      1.428119      1.558979
H      -0.296456      1.208352      0.612498
H      -1.465630      0.903383     -0.622609
H      -1.089645     -1.715836      0.090348
