15
smiles: [C:1](=[C:2]([C:3]([H:12])([H:13])[H:14])[H:11])([H:8])[H:10].[C:4](=[O:5])=[C:6]=[C:7]([H:9])[H:15]
C       -0.58205000      -1.29986800      -1.29396900
C       -0.80540000      -0.93964100      -0.03976000
C       -1.73438000       0.15062200       0.38987100
C        1.87353600       0.44710400       1.53160600
O        1.86980000      -0.18723200       2.50403000
C        2.00454500       1.27492400       0.54820900
C        1.71780300       1.64317600      -0.68234400
H        0.10808700      -2.09765200      -1.53983600
H        1.05066700       1.06845700      -1.32196500
H       -1.08087900      -0.80792500      -2.12299000
H       -0.28053700      -1.46305900       0.75634700
H       -2.22688000       0.61407200      -0.46603100
H       -2.50443700      -0.23444500       1.06328500
H       -1.19503400       0.92804000       0.93742500
H        2.14018700       2.54546700      -1.11656100
