20
Extracted from Q-Chem output
C      -1.299931      1.749123      0.547120
C      -0.752630      0.339881      0.523968
N      -1.187099     -0.430307     -0.572209
C      -1.056625     -1.793161     -0.384998
C       0.703983      0.187236      0.098441
C       1.370495     -1.008190      0.537490
C       1.245494      0.867432     -1.137176
H      -2.354466      1.720587      0.825111
H      -0.764357      2.371753      1.267929
H      -1.235524      2.206222     -0.440351
H      -0.887106     -0.130679      1.516019
H      -1.413629     -2.362401     -1.244095
H       0.079539     -2.067647     -0.262934
H      -1.485501     -2.198640      0.548050
H       1.519727      0.305162      1.021196
H       1.108323     -1.454110      1.488892
H       2.261370     -1.360134      0.031166
H       0.658324      1.747071     -1.390069
H       1.221425      0.193318     -1.993798
H       2.279997      1.180656     -0.980130
