14
Extracted from Q-Chem output
O       2.370915     -0.214511      0.235464
C       1.764966      0.333319     -0.808779
C      -0.306784     -0.032785     -0.233609
C      -0.602265     -1.241645      0.573127
N      -0.165256     -0.003565      1.191432
C      -1.407168      0.736731     -0.859673
O      -2.217292      1.357369     -0.219158
H       2.155619      0.242161      1.065514
H       1.526553      1.398266     -0.661358
H       0.691034     -0.249620     -1.093961
H       0.126429     -2.044701      0.585893
H      -1.640950     -1.536878      0.679487
H      -0.942065      0.516553      1.591448
H      -1.443741      0.721652     -1.964320
