12
Extracted from Q-Chem output
N       1.710141      0.266814     -0.624983
C       0.862134     -0.625990     -0.095655
O       1.111424     -1.752537      0.219541
N      -0.508923     -0.074689      0.057201
C      -1.463228     -0.940638     -0.209987
C      -0.613565      1.227945      0.376641
H       1.373046      1.165092     -0.925345
H       2.660316     -0.016472     -0.776978
H      -1.184013     -1.921034     -0.551623
H      -2.487935     -0.639889     -0.062557
H      -1.609381      1.633662      0.463117
H       0.216155      1.680448      0.893657
