12
Extracted from Q-Chem output
O       1.641963      0.395795      0.869172
C       1.189472     -0.612860      0.003395
C      -0.246024     -0.389091     -0.417064
C      -1.245587      0.178318      0.505309
N      -0.626209      1.015124     -0.524716
H       1.289110      1.223863      0.518964
H       1.281582     -1.566280      0.529225
H       1.815079     -0.666230     -0.898975
H      -0.608703     -1.071235     -1.180742
H      -0.955543      0.422722      1.519861
H      -2.281880     -0.111802      0.375156
H      -1.253262      1.181677     -1.299587
