12
Extracted from Q-Chem output
O       1.514413      0.330172      0.979421
C       1.246185     -0.569853     -0.072760
C      -0.026463     -0.388561     -0.866017
C      -1.282561      0.107671      0.352161
N      -0.561955      0.920997     -0.622440
H       1.218215      1.195759      0.673526
H       1.311093     -1.582441      0.327759
H       2.013967     -0.493370     -0.859614
H      -1.041336     -1.006604     -0.042734
H      -0.944573      0.239976      1.371374
H      -2.357675      0.085931      0.202649
H      -1.193632      1.176063     -1.370358
