12
Extracted from Q-Chem output
O       2.671748      0.196904     -0.798472
C       1.558931     -0.429906     -0.834835
C      -1.089581     -0.860438      0.861977
C      -0.934551      0.164507     -0.267259
C       0.477875      0.628313     -0.339648
O       0.865491      1.735139     -0.041980
H       2.515764      1.130650     -0.472171
H      -0.391552     -1.689053      0.732576
H      -2.100880     -1.266111      0.864306
H      -0.905667     -0.399543      1.833657
H      -1.596408      1.019190     -0.128095
H      -1.164853     -0.318714     -1.221897
