16
Extracted from Q-Chem output
C       2.017895      0.303676      0.466382
C       0.587121      0.554761      0.159246
C      -0.105986      1.548353     -0.396673
C      -1.442278      0.855504     -0.265229
C      -0.639718     -0.309509      0.395324
C      -0.684895     -1.654636     -0.306635
H       2.370859     -0.602119     -0.034426
H       2.645350      1.137188      0.148458
H       2.163865      0.152020      1.539443
H       0.179173      2.513967     -0.798628
H      -2.177340      1.340126      0.381954
H      -1.929150      0.580807     -1.204775
H      -0.878949     -0.431252      1.457239
H      -1.671346     -2.115331     -0.214524
H      -0.462592     -1.542226     -1.371231
H       0.045305     -2.349033      0.116524
