16
Extracted from Q-Chem output
C       1.890704      0.287788      0.631699
C       0.458717      0.506525      0.307853
C      -0.215881      1.279655     -0.546457
C      -1.578073      0.795011     -0.106533
C      -0.798032     -0.111530      0.891679
C       0.177146     -2.259867     -1.111041
H       2.161041     -0.759581      0.475200
H       2.534270      0.912124      0.010646
H       2.089142      0.522408      1.680818
H       0.094135      2.005805     -1.289181
H      -2.219970      1.542021      0.365240
H      -2.163195      0.257767     -0.856915
H      -0.979014      0.099592      1.948352
H      -0.916120     -1.190931      0.743838
H       0.399799     -1.475031     -1.860626
H      -0.913504     -2.413762     -1.247498
