16
Extracted from Q-Chem output
C       1.317098     -1.236672      0.183927
C       0.756105      0.159731      0.020770
O       1.778960      1.082607      0.375079
C       0.049616      0.579117     -1.268340
N      -1.215622      0.879033     -0.468454
C      -1.736179     -0.230832      0.340155
C      -0.529738      0.494664      0.789667
H       0.548638     -2.005000      0.082284
H       1.804720     -1.346416      1.154436
H       2.068798     -1.405319     -0.589054
H       1.753100      1.718648     -0.349545
H      -0.179930     -0.225327     -1.973908
H      -1.767263      1.717837     -0.579368
H      -1.661242     -1.201929     -0.131359
H      -2.659214     -0.019657      0.869156
H      -0.567315      1.146623      1.654648
