13
Extracted from Q-Chem output
O      -2.459577      0.049708     -0.199002
C      -1.365824     -0.705290      0.281105
C      -0.103202     -0.383078     -0.477230
C       0.720379      0.828046     -0.178327
O       1.052248      0.188402      1.330593
C       1.291512     -0.477881      0.174069
C       2.161153      0.160559     -0.744142
H      -2.398598      0.939469      0.152781
H      -1.211258     -0.567029      1.352681
H      -1.617623     -1.751740      0.102669
H      -0.108841     -0.630927     -1.532705
H       0.815638      1.900162     -0.154450
H       2.954385      0.677647     -0.191381
