12
Extracted from Q-Chem output
O      -1.291408     -1.653518      1.383166
C      -0.940710     -0.604578      1.065111
C      -0.676510      0.431474      0.164175
C       0.862228      0.413521      0.262148
C       0.210506      0.484025     -1.084910
C       0.336876     -0.608242     -2.020574
N       0.449822     -1.484189     -2.752773
H       0.051228      0.234283      2.279204
H      -1.077997      1.389590      0.475337
H       1.220218     -0.614631      0.392028
H       0.720159      0.660969      1.700242
H       0.062334      1.446566     -1.565288
