12
smiles: [C:1]([C:2]#[C:3][H:10])([H:7])([H:8])[H:9].[C:4](#[N+:5][N-:6][H:12])[H:11]
C       -1.53311000      -0.47213300      -0.18675500
C       -0.56132000      -1.44434900       0.29626400
C        0.23545500      -2.24474800       0.69285100
C        1.79826300       0.86250200      -0.92355700
N        1.16918000       1.63829100      -0.29051900
N        0.45939900       2.52316100       0.18832200
H       -1.37505800       0.49840100       0.28551300
H       -1.44586900      -0.34473200      -1.26658800
H       -2.54932700      -0.79865000       0.03808100
H        0.94479900      -2.95670100       1.04249000
H        1.93111700      -0.20064400      -0.82739600
H        0.96105200       2.97812600       0.95027500
