12
Extracted from Q-Chem output
C      -1.911218     -0.278224     -0.001150
C      -0.508889     -0.695851     -0.001342
C       0.534162     -1.328104      0.025354
C       2.223374      0.139966      0.010270
N       1.561960      1.140643      0.010975
N       0.384780      1.549098      0.097965
H      -2.115130      0.371226      0.849460
H      -2.154713      0.274958     -0.908783
H      -2.565877     -1.150507      0.057303
H       1.161789     -2.189856      0.041284
H       3.203763     -0.094593      0.388839
H       0.220578      2.299770     -0.571196
