14
Extracted from Q-Chem output
C       1.022428     -0.200045     -0.729810
C       0.017675     -1.240160     -0.271536
C      -1.297368     -0.580934      0.007601
C      -0.458540     -0.914451      1.115181
N      -0.710461      0.494747      0.802228
C       0.518774      1.005091      0.072027
C      -0.188389      2.077243     -0.667398
H       0.961841     -0.017579     -1.803446
H       2.047059     -0.471020     -0.468784
H       0.048041     -2.270424     -0.609184
H      -2.330803     -0.707914     -0.260047
H      -0.568210     -1.396134      2.070760
H       1.226428      1.329721      0.840934
H      -0.250647      2.933627      0.029156
