14
Extracted from Q-Chem output
C      -1.490882     -0.843478      0.092138
C      -1.295951      0.380622     -0.856822
C       0.111912      0.387707     -0.368246
C       0.006440     -0.794574      0.517481
C       2.364994      0.945838     -0.330283
O       1.115154      1.081118     -0.727716
H      -1.781111     -1.760329     -0.417190
H      -2.186035     -0.657985      0.908720
H      -1.903173      1.256853     -0.613092
H      -1.427719      0.157835     -1.920271
H       0.616752     -1.653711      0.205674
H       0.198934     -0.622751      1.583310
H       3.033284      1.702482     -0.698079
H       2.586034      0.246341      0.461701
