14
Extracted from Q-Chem output
C      -1.181939     -0.885710     -0.428724
C      -1.483174      0.548988     -0.677490
C      -0.091097      0.436019     -0.192015
C       0.149290     -0.153428      1.073343
C       2.166621      0.555720     -0.281330
O       0.904607      0.690495     -0.983193
H      -0.764129     -1.476812     -1.232379
H      -1.718327     -1.429327      0.335096
H      -2.203095      1.006746     -0.007827
H      -1.549253      0.880408     -1.706584
H       1.003884     -0.779516      1.241402
H      -0.583099     -0.042576      1.864008
H       2.890189      1.087936     -0.898529
H       2.430163     -0.506752     -0.214597
