14
Extracted from Q-Chem output
C      -1.340632     -1.037234      0.363238
N      -0.265507     -0.152056     -0.022562
C      -0.579877      1.246141     -0.191637
C       1.004855     -0.650591     -0.117865
O       1.265598     -1.836864     -0.036656
N       1.995329      0.285040     -0.365390
H      -0.937158     -2.039061      0.479720
H      -1.788429     -0.716622      1.309267
H      -2.121175     -1.055095     -0.402775
H       0.019636      1.686504     -0.988838
H      -1.626355      1.339509     -0.483475
H      -0.440427      1.828800      0.728218
H       2.915481     -0.110940     -0.279371
H       1.898661      1.212472      0.008125
