15
Extracted from Q-Chem output
O      -0.366024      2.110808      0.969636
C      -0.050920      1.249521      0.181349
C      -1.101254      0.367500     -0.466641
C      -1.259938     -0.984045      0.178171
C      -0.725440     -1.373692      1.323932
C       1.862284      0.107029     -0.947846
C       1.385835      1.053529     -0.150996
H      -0.877799      0.235710     -1.529210
H      -2.049191      0.907203     -0.406230
H      -0.089988     -0.726139      1.918183
H      -1.899094     -1.673340     -0.367101
H      -0.914762     -2.364758      1.716748
H       1.218363     -0.619756     -1.429283
H       2.924836      0.014671     -1.137034
H       2.045895      1.762083      0.338307
