13
Extracted from Q-Chem output
N      -1.941061      0.648622     -0.140115
C      -0.612337      0.344470     -0.076362
C      -0.186898     -1.081427      0.164770
N       1.239427     -1.003900      0.012698
C       1.677228      0.298202     -0.151907
O       2.837765      0.639599     -0.186456
C       0.463015      1.123374     -0.262355
H      -2.589894      0.031810      0.314429
H      -2.200458      1.618651     -0.126642
H      -0.652470     -1.751777     -0.565347
H       1.870054     -1.708308      0.348005
H      -0.488105     -1.407344      1.168049
H       0.492603      2.184115     -0.456284
