16
Extracted from Q-Chem output
C      -2.025536      0.501319      0.388252
C      -0.665635     -0.159527      0.495636
O      -0.893969     -1.553475      0.677504
C       0.161939      0.107749     -0.744943
C       1.592536      0.091991     -0.627403
O       2.102802     -0.899965      0.162581
H      -2.622828      0.272908      1.271533
H      -1.922863      1.583437      0.297578
H      -2.554368      0.125698     -0.490148
H      -0.139173      0.240326      1.373922
H      -0.036175     -1.985280      0.691739
H       0.680003      1.043747     -1.878188
H      -0.301544     -0.314581     -1.627559
H       2.182054      0.996930     -0.577183
H       1.492098      0.611836     -2.123464
H       2.930477     -0.629671      0.568908
