16
Extracted from Q-Chem output
C      -0.777731     -0.955159     -0.966706
C       0.317183     -0.580130      0.026370
C       1.672068     -0.442736     -0.658970
C      -0.053581      0.706061      0.767909
C      -1.267909      0.572039      1.627147
O      -2.017215      1.633189      1.591284
H      -0.539280     -1.886501     -1.483960
H      -1.737307     -1.086483     -0.461352
H      -0.900004     -0.175509     -1.725598
H       2.461508     -0.212082      0.059828
H       1.654540      0.356714     -1.405644
H       1.946202     -1.366848     -1.171763
H       0.740725      0.949496      1.488741
H      -0.119076      1.556975      0.059299
H       0.382065     -1.371491      0.779133
H      -1.684111      2.323454      0.979794
