13
Extracted from Q-Chem output
C      -0.745742     -0.780361     -0.254817
C      -0.366560      0.695028     -0.272362
O      -1.223047      1.589252      0.403368
C       0.979258      0.617752      0.456772
C       1.215894     -0.813170      0.132105
N       1.858673     -1.816533     -0.062945
H      -1.277455     -1.148390     -1.134159
H       0.574100     -1.812834     -0.326662
H      -1.271376     -1.050252      0.663363
H      -0.203331      1.025570     -1.305275
H      -2.105119      1.494025      0.039340
H       0.824703      0.731407      1.532497
H       1.780897      1.279102      0.128540
