13
Extracted from Q-Chem output
C      -1.616328     -0.491348      0.918905
C      -0.482824     -0.250939     -0.020321
O      -0.868708     -0.472051     -1.309926
C       1.897816      0.370146     -0.579730
C       0.741490      0.126223      0.343203
H      -1.309842     -0.324707      1.949755
H      -1.979304     -1.516349      0.816970
H      -2.448359      0.175583      0.683186
H      -0.135133     -0.284844     -1.900322
H       1.787996     -0.127248     -1.548253
H       2.049345      1.435624     -0.776703
H       0.910856      0.281225      1.401420
H       2.824449     -0.011642     -0.147509
