15
Extracted from Q-Chem output
C      -1.314099     -0.827295     -0.180348
C      -0.291542      0.283233      0.081573
O      -0.865643      1.551977     -0.127790
C       0.239182      0.230099      1.507686
C       1.813535     -0.809040     -1.219953
C       0.838120      0.106168     -0.893512
O       1.043590      0.819520     -1.898876
H      -2.152125     -0.692066      0.503768
H      -1.686389     -0.769495     -1.204063
H      -0.877747     -1.815295     -0.026044
H      -0.712167      1.810112     -1.044167
H       0.978726      1.014320      1.670019
H      -0.587117      0.387889      2.201086
H       2.822976     -0.536063     -0.905875
H       0.691985     -0.740096      1.720080
