11
Extracted from Q-Chem output
O      -1.426957      1.045705     -0.422906
C      -1.164063     -0.111110      0.344683
C       0.290866     -0.450598      0.275509
C       1.179357      0.255457     -0.408397
O       2.508016     -0.004253     -0.505650
H      -2.359963      1.249758     -0.359769
H      -1.754680     -0.962009     -0.024012
H      -1.450653      0.048925      1.394073
H       2.719346     -0.789990      0.004782
H       0.599799     -1.333095      0.830695
H       0.901606      1.136797     -0.970870
