11
Extracted from Q-Chem output
O      -1.344036      0.585933     -0.862256
C      -0.930008     -0.181274      0.253177
C       0.497706     -0.632788      0.002434
C       1.479435      0.510199     -0.005954
O       2.585827      0.444854      0.457110
H      -2.210877      0.954568     -0.688300
H      -1.571667     -1.060054      0.385795
H      -0.980579      0.410570      1.176593
H       0.538192     -1.110540     -0.982715
H       0.818695     -1.365296      0.744367
H       1.117311      1.443828     -0.480252
