16
Extracted from Q-Chem output
C       2.980167      0.794327      1.922375
C       1.727485      0.441885      1.445040
C       0.657448      0.409296      0.743025
C      -0.089938     -0.620188     -0.001090
C      -1.536453     -0.274713     -0.258354
C      -1.945725      0.478483     -1.455620
N      -2.169608     -0.966008     -1.373840
H       3.225782      0.636382      2.963698
H       3.768622      1.125811      1.254795
H       2.054584     -0.535213      1.980801
H      -0.030465     -1.595745      0.499632
H       0.408615     -0.758068     -0.968134
H      -2.129866     -0.115996      0.637934
H      -1.195091      0.782971     -2.176473
H      -2.798114      1.143693     -1.377676
H      -3.140750     -1.169408     -1.176360
