18
Extracted from Q-Chem output
C      -1.549656      0.536768     -0.148670
C      -1.451268     -0.975434      0.073339
C       0.019113     -1.287126     -0.218910
C       0.776230     -0.104259      0.391816
C       2.187892      0.121440     -0.116888
C      -0.160902      1.069609      0.166823
N       0.223072      2.271009      0.227062
H      -2.316635      1.028207      0.452014
H      -0.549555      2.912772      0.056391
H      -1.768425      0.758944     -1.198010
H      -1.679796     -1.216717      1.115215
H      -2.141159     -1.543893     -0.550821
H       0.342612     -2.249695      0.179633
H       0.188648     -1.308250     -1.301303
H       0.809158     -0.252138      1.480175
H       2.830684     -0.728230      0.122061
H       2.188041      0.255106     -1.201334
H       2.615148      1.020310      0.326910
