13
smiles: [C:1]([C:2]([C:3](=[O:4])[H:11])([H:10])[H:12])([H:7])([H:8])[H:9].[C:5](#[N:6])[H:13]
C       -1.92265000       0.01922800       0.52650500
C       -0.66731900       0.42677400      -0.24159100
C        0.37271500       1.01980500       0.66806700
O        1.51874800       0.66922400       0.72405700
C        2.81848900      -1.45628300      -1.11453100
N        3.15946100      -2.27139100      -1.84067500
H       -1.70409900      -0.77209200       1.24546100
H       -2.68988500      -0.34825800      -0.15497000
H       -2.34438200       0.86467400       1.07478100
H       -0.22247100      -0.41399800      -0.77500500
H        0.00751100       1.84127200       1.32435500
H       -0.92172900       1.19674200      -0.97920700
H        2.50126400      -0.69476300      -0.43581000
