13
Extracted from Q-Chem output
C       1.499006      0.195979     -0.270215
C       0.357653      0.348124      0.722074
C      -0.990714     -0.167734      0.261003
O      -1.966776     -0.301583      1.125835
C      -1.357841      0.308307     -1.106613
N      -1.651697      0.710773     -2.139317
H       2.416076      0.608472      0.149258
H       1.687477     -0.854952     -0.502608
H       1.294356      0.719215     -1.205377
H       0.162130      1.402066      0.947455
H       0.565449     -0.141896      1.673988
H      -0.616629     -1.493944     -0.144639
H      -1.342605     -1.395517      0.496885
