14
Extracted from Q-Chem output
O       2.431204     -0.038989     -0.693406
C       1.814651      0.485821      0.324076
C       0.445609      0.006491      0.627304
C      -0.197225     -1.092786     -0.244348
C      -1.487492     -0.248713     -0.289102
C      -0.678232      0.982415      0.167385
H       2.955730      0.806382     -0.088178
H       0.367804     -0.185758      1.699226
H       0.295159     -1.154416     -1.215813
H      -0.258697     -2.091949      0.183940
H      -2.006014     -0.174594     -1.244479
H      -2.202570     -0.561076      0.472991
H      -0.351267      1.592811     -0.675834
H      -1.109348      1.632171      0.926855
