14
Extracted from Q-Chem output
C      -1.455798      0.972930      0.593653
C      -0.543543     -0.243353      0.547697
C       0.767790      0.015779     -0.220322
C       1.699613     -1.178995     -0.076919
O       2.126037     -1.836597     -0.976432
C       0.520101      0.353448     -1.620569
N       0.290155      0.637800     -2.706849
H      -0.961639      1.819284      1.076006
H      -2.362093      0.749131      1.156966
H      -1.751668      1.282630     -0.409852
H      -0.277726     -0.552058      1.562598
H      -1.056810     -1.087903      0.081666
H       1.277794      0.868432      0.245131
H       1.948424     -1.409409      0.979540
