14
Extracted from Q-Chem output
C      -1.607939      0.979745      0.432228
C      -0.643135     -0.188396      0.576901
C       0.560789     -0.165692     -0.276116
C       1.768938     -0.931880      0.021120
O       2.202443     -1.582778     -1.019793
C       0.506584      0.483683     -1.534792
N       0.418893      1.100840     -2.503632
H      -1.120017      1.924350      0.674803
H      -2.450793      0.849589      1.110153
H      -1.997070      1.051494     -0.583665
H      -0.300257     -0.331157      1.609742
H      -1.149464     -1.134655      0.327478
H       2.436664     -0.116343      0.461989
H       1.594997     -1.547666      0.935891
