12
Extracted from Q-Chem output
O       2.068837      0.554121      0.570149
C       0.863099     -0.124601      0.478961
C       0.048997     -1.256993     -0.077914
C      -1.095048     -0.174150     -0.173377
C      -0.192898      0.905640      0.478866
C       1.038487      1.034586     -0.362553
H      -0.188264     -2.038145      0.643988
H       0.395315     -1.706692     -1.009191
H      -1.420564      0.040366     -1.191725
H      -1.961573     -0.415939      0.438759
H      -0.495681      1.605068      1.251188
H       1.215139      0.942749     -1.422920
