14
Extracted from Q-Chem output
C      -1.692138     -1.043446     -0.614398
C      -0.671889     -0.065362     -0.133988
N      -1.111768      1.114474      0.551925
O      -2.307348      1.230303      0.620457
C       0.651720     -0.182651     -0.283535
C       1.700551      0.786206      0.169998
O       2.719322      0.117865      0.891779
H      -2.363242     -0.576340     -1.337091
H      -1.208458     -1.900070     -1.080816
H      -2.313901     -1.390499      0.212358
H       2.357723     -0.159938      1.735645
H       1.041206     -1.070945     -0.774660
H       2.189191      1.210972     -0.710610
H       1.263942      1.608300      0.738413
