13
Extracted from Q-Chem output
C       1.857803      0.177383      0.702283
C       0.840233     -0.021593     -0.341002
C       0.329427     -0.642582     -1.337593
N      -1.700201     -0.732960      0.937928
C      -1.705208      0.173985      0.054090
C      -0.511569      0.476025     -0.779727
H       1.396919      0.047878      1.683195
H       2.673992     -0.536784      0.596667
H       2.262932      1.190261      0.655675
H       0.332255     -1.435242     -2.063479
H      -2.602865     -0.795599      1.400519
H      -2.586503      0.798456     -0.144058
H      -0.586389      1.409122     -1.339293
