12
Extracted from Q-Chem output
O       1.713541      1.579135      0.719869
C       1.993944      0.469377      0.374230
C       0.965390     -0.619424      0.046647
O       1.342988     -1.640915     -0.474549
N      -0.313574     -0.361199      0.442797
C      -1.493007     -0.683958     -0.309151
C      -1.152659      0.731594      0.024834
H       3.033664      0.126165      0.218599
H      -2.277480     -1.188884      0.240564
H      -1.342242     -1.021996     -1.328388
H      -0.787355      1.366901     -0.773337
H      -1.683211      1.243203      0.817884
