14
smiles: [O:1]([C@@:2]1([H:8])[C:3]([H:10])=[C:4]([H:11])[C:6]1([H:13])[H:14])[H:7].[O:5]([H:9])[H:12]
O        1.63221500       0.72148300      -0.52363900
C        1.05680700       0.10753300       0.59842000
C       -0.24802900       0.64794000       1.14521500
C       -0.87714800      -0.52071600       1.03498100
O       -0.81628600       0.98567100      -2.02991900
C        0.28991000      -1.24297100       0.39998700
H        0.93919200       0.88039600      -1.16887600
H        1.85346400       0.03361900       1.34094900
H       -1.29960600       0.75435300      -1.23577800
H       -0.53157100       1.62131600       1.52665900
H       -1.86165300      -0.86112500       1.33227700
H       -1.10421500       0.35910100      -2.69494300
H        0.15873200      -1.50337800      -0.65222600
H        0.68552600      -2.11173000       0.93153700
