12
Extracted from Q-Chem output
N       0.639241      1.005969      1.054805
C       0.326073      0.286227     -0.149905
C      -0.830015      0.825218     -0.803951
C      -0.625510     -0.509152      0.724732
C       1.405245     -0.424932     -0.820855
N       2.251979     -0.966560     -1.373843
H       1.439374      0.707463      1.586273
H       0.440894      1.993098      1.009985
H      -1.015203      0.193697     -1.687656
H      -1.549544     -1.489692     -0.555811
H      -1.576944     -0.004383      0.929502
H      -1.092126     -1.787193      0.029633
