16
smiles: [C:1]([C:2](=[O:3])[C:4]([C:5](=[O:6])[N:7]([H:15])[H:16])([H:13])[H:14])([H:8])([H:9])[H:10].[H:11][H:12]
C       -2.21095800       0.23507600      -0.29936000
C       -0.85844900       0.39680300       0.33804800
O       -0.61041200       1.32966500       1.06639800
C        0.14764700      -0.69644200       0.03360800
C        1.63242600      -0.34580500      -0.03349100
O        2.36412100      -0.96666300      -0.77486600
N        2.05559700       0.62351700       0.80296500
H       -2.59181900      -0.77553500      -0.13650900
H       -2.11334000       0.36871500      -1.37993200
H       -2.90615200       0.97050600       0.09842900
H        0.68839100      -0.43700900      -3.04124200
H        0.13605200      -0.24846800      -3.50354200
H        0.03221000      -1.44091600       0.83065800
H       -0.10071900      -1.20565300      -0.89645000
H        3.01886400       0.90221500       0.74417400
H        1.37739400       1.19944000       1.27743600
