10
Extracted from Q-Chem output
N       1.897393     -0.480104      0.063318
C       0.627991     -0.185526      0.025852
C      -0.436468     -1.193602      0.182062
C      -1.514986     -0.385927      0.068233
C      -1.182737      1.032442     -0.144683
O      -1.771233      2.039771     -0.289453
O       0.293576      1.068097     -0.159660
H       2.615872      0.216460     -0.045040
H       2.129034     -1.450154      0.207713
H      -2.560405     -0.663344      0.115017
