14
Extracted from Q-Chem output
C      -1.335841     -0.413144     -0.154398
C      -0.943207      1.023315     -0.025736
C       0.197351      1.514086      0.434893
O       1.289657      0.812315      0.820874
C       1.737828     -0.256622      0.005265
N       0.961842     -1.462565     -0.065464
C      -0.294453     -1.495930     -0.127126
H      -2.069810     -0.654010      0.625979
H      -1.887001     -0.564591     -1.090955
H      -1.709370      1.749410     -0.271953
H       0.329672      2.581854      0.577952
H       1.886176      0.106194     -1.019293
H       2.706965     -0.515916      0.427974
H      -0.730680     -2.495221     -0.215664
