14
Extracted from Q-Chem output
C      -1.379256     -0.472262      0.305792
C      -0.833148      0.752205     -0.339674
C       0.372018      1.257197      0.142731
O       0.891135      0.547664      1.253947
C       1.564564     -0.353656      0.392200
N       0.928347     -1.280025     -0.314200
C      -0.367660     -1.204960     -0.515537
H      -1.260515     -0.527882      1.381401
H      -2.393258     -0.711293      0.001480
H      -1.322747      1.209467     -1.188339
H       0.629984      2.309997      0.102193
H       1.406862      0.680744     -0.558956
H       2.597318     -0.528091      0.676300
H      -0.743672     -1.728444     -1.391076
