18
Extracted from Q-Chem output
C      -2.247853     -0.485037     -1.024632
C      -1.228650     -1.072488     -0.058070
N      -0.359573     -0.038410      0.458763
C       1.063672      1.921891      1.472865
C       0.851679      0.011438      0.116337
O       1.656698      0.984453      0.587921
C       1.613177     -0.909226     -0.798811
H      -2.959883     -1.246226     -1.349624
H      -1.754904     -0.076635     -1.909657
H      -2.798906      0.325461     -0.545526
H      -0.686728     -1.891458     -0.547730
H      -1.755331     -1.512835      0.793053
H       0.682622      1.425464      2.366644
H       1.853806      2.623330      1.732099
H       0.234074      2.439764      0.989366
H       2.615717     -0.521661     -0.961491
H       1.107712     -1.003384     -1.760063
H       1.689370     -1.905258     -0.360256
