18
Extracted from Q-Chem output
C      -1.888472     -0.653245     -0.968270
C      -1.013549     -1.001815      0.230226
N      -0.037526      0.012298      0.541108
C       0.333825      1.715322      1.701921
C       1.104367      0.196304     -0.027899
O       1.761045      1.185455      0.409530
C       1.680550     -0.633489     -1.137856
H      -2.382933      0.307610     -0.816057
H      -2.656150     -1.414075     -1.126401
H      -1.291765     -0.581839     -1.880177
H      -0.527254     -1.973039      0.070295
H      -1.644117     -1.128086      1.115244
H      -0.325353      1.204869      2.390371
H       1.209455      2.118509      2.193141
H      -0.173231      2.421082      1.060510
H       2.731623     -0.831641     -0.934744
H       1.623951     -0.067888     -2.068957
H       1.149656     -1.575910     -1.267988
