15
smiles: [C:1](=[C:2]=[O:5])([H:8])[H:10].[C:3](=[C:4]([H:13])[H:14])([H:11])[H:12].[C:6](=[O:7])([H:9])[H:15]
C       -0.87349900       2.23246500       0.06921300
C       -0.08815000       1.72478800       0.98304500
C       -1.03168800      -1.46200700      -0.85966700
C       -1.21052700      -1.43136700       0.44967800
O        0.60634800       1.27571100       1.78973500
C        2.41666700      -0.33241500      -0.29269200
O        2.33999400      -1.52560200      -0.31145000
H       -1.46526400       1.57251800      -0.54529700
H        1.66878100       0.31009500      -0.79587200
H       -0.91871900       3.30314900      -0.05379300
H       -1.82766900      -1.20517500      -1.54928900
H       -0.08176700      -1.74723300      -1.29731100
H       -2.16045000      -1.14613300       0.88731800
H       -0.41457900      -1.68818100       1.13934200
H        3.24032900       0.19244100       0.22804600
