6
Extracted from Q-Chem output
C       0.854597      0.141408      1.072126
C       0.708707     -0.262847     -0.199412
C      -0.511501      0.651654      0.426473
C      -0.915445      0.044211     -0.602091
H       1.420733     -0.129387     -1.004664
H      -1.657469     -0.496154     -1.155534
