12
Extracted from Q-Chem output
N       3.054346     -0.765680      0.691749
C       2.087363     -0.421290      0.174949
C       0.859482     -0.008816     -0.452738
C      -1.360487     -1.241477     -0.342605
N      -1.813738     -0.113983      0.062279
C      -1.189079      1.012067      0.205444
N       0.178729      1.021319      0.223955
H       0.980424      0.169780     -1.521027
H      -0.034259     -0.983599     -0.627665
H      -1.644383     -2.085563      0.297096
H      -1.725878      1.933918      0.382840
H       0.656589      1.556830      0.931621
