13
smiles: [H:8][H:9].[O:1]=[C:2]([N:3]=[C:4]1[C:5]([H:10])([H:11])[C:6]1([H:12])[H:13])[H:7]
O        2.87133800      -1.30269700      -0.89140400
C        1.69196400      -1.16640900      -0.78341300
N        1.10301500      -0.32487400       0.19548900
C       -0.14694500      -0.21367400       0.09362900
C       -1.34491300       0.39436700       0.63547600
C       -1.40139100      -0.53481700      -0.59619400
H        0.97336100      -1.69577100      -1.44317200
H        1.48155400       2.12663100       1.30186900
H        1.34308300       2.83041000       1.50177600
H       -1.73257100       0.01245900       1.57256900
H       -1.49586900       1.45571100       0.47755900
H       -1.59058000      -0.08281200      -1.56267600
H       -1.83106800      -1.52088900      -0.46476800
