15
Extracted from Q-Chem output
C      -2.603017      0.302958     -0.426889
O      -2.046902     -0.230026      0.789520
C      -0.905837     -0.902658      0.734698
O      -0.364511     -0.992258     -0.420698
C       0.901865     -0.358232      0.712943
C       1.724433      0.240259     -0.419342
O       2.883646      0.815741      0.147881
H      -2.763271     -0.483347     -1.163570
H      -3.552133      0.745757     -0.137251
H      -1.946689      1.061613     -0.853661
H       0.695504      0.408623      1.458459
H       1.329292     -1.245783      1.161027
H       1.963537     -0.516668     -1.169155
H       1.178926      1.046342     -0.908089
H       3.511791      0.120959      0.352598
