11
Extracted from Q-Chem output
N      -1.860120     -0.399260      0.059728
C      -0.628176      0.134732     -0.081888
O      -0.700097      1.471694     -0.140732
C       0.517622     -0.598754     -0.172565
C       1.815747     -0.023901     -0.357930
O       2.859273     -0.633557     -0.441059
H      -1.951560     -1.375675      0.264008
H      -2.622216      0.211462      0.289008
H       0.451497     -1.676645     -0.106919
H       0.179987      1.840379     -0.261087
H       1.856647      1.093608     -0.430365
