11
Extracted from Q-Chem output
N      -1.796995     -0.362163     -0.207234
C      -0.685032      0.285119      0.099824
O      -0.648799      1.556279      0.216309
C       0.634579     -0.247091      0.387069
C       1.630814     -0.084895     -0.664171
O       2.688267     -0.669329     -0.712041
H      -1.775632     -1.347300     -0.394188
H      -2.668499      0.134126     -0.279578
H       0.741907     -1.131567      1.006197
H       0.463437      1.218007      0.664120
H       1.373463      0.672250     -1.438170
