12
Extracted from Q-Chem output
N       2.132815      0.253395      0.089752
C       0.771129      0.107722     -0.103723
N      -0.023551     -0.995232     -0.667793
C      -1.265043     -1.065590      0.058272
C      -1.568363      0.130769      0.538783
C      -0.430643      0.965350      0.077474
N       0.035392      0.418637     -1.251029
H       2.667164     -0.066549     -0.705722
H       2.461135     -0.170744      0.943560
H      -1.773366     -2.014926      0.117863
H      -2.418997      0.452398      1.116796
H      -0.346754      2.037446      0.198896
