14
Extracted from Q-Chem output
C       1.735061     -0.222999     -0.425746
C       0.330383      0.015907      0.011764
C      -0.786495      0.848106     -0.656082
C      -1.231635      0.444064      0.756858
C      -0.738935     -0.987068      0.498267
O       0.107309      0.790246      1.252193
H       2.245612      0.726423     -0.592730
H       1.744246     -0.793563     -1.355870
H       2.278664     -0.785162      0.334726
H      -0.559677      1.904738     -0.788678
H      -1.309839      0.408313     -1.505769
H      -2.085118      0.787020      1.337255
H      -0.469609     -1.555084      1.387244
H      -1.259967     -1.580942     -0.253433
