16
smiles: [C:1](=[O:2])([H:8])[H:9].[C:3](=[C:4]([N:5]([O:6][H:13])[H:10])[C:7]([H:14])([H:15])[H:16])([H:11])[H:12]
C        2.22828700       0.04901600      -0.34015100
O        1.92126200      -0.60438700      -1.29339700
C       -0.50029900       0.45160300       1.54940000
C       -0.77064700      -0.08522000       0.36440300
N       -0.91680000       0.65491100      -0.82122200
O       -0.40051800       1.95520400      -0.74986700
C       -1.03275500      -1.54432300       0.13955300
H        2.69715100      -0.40423600       0.55438400
H        2.05981900       1.14247600      -0.30051000
H       -0.46240100       0.20188000      -1.60463900
H       -0.30460400       1.50794900       1.66111800
H       -0.47059900      -0.17434500       2.42996500
H       -1.17271700       2.51666900      -0.85135900
H       -2.01990900      -1.69725900      -0.30206600
H       -0.98329700      -2.08835100       1.08027800
H       -0.29354500      -1.97581200      -0.54204800
