15
smiles: [C:1](=[C:2]([C:4]([O:5][C:6](=[O:7])[H:15])([H:13])[H:14])[H:11])([H:8])[H:10].[O:3]([H:9])[H:12]
C       -1.68000300       0.57657700      -0.59412300
C       -0.63570400       0.03641500      -1.19916700
O        0.55520200       2.21643900       1.44169500
C       -0.05462000      -1.28772000      -0.81935300
O        1.32374200      -1.14843400      -0.42169000
C        1.54652600      -0.86929600       0.86287600
O        0.71830600      -0.76284700       1.71821700
H       -2.08580700       1.52974400      -0.91027700
H        0.00755800       1.96813700       0.69598200
H       -2.16119100       0.08622200       0.24507500
H       -0.15077300       0.54998900      -2.02461600
H        0.58665600       1.44146400       2.00386100
H       -0.02135200      -1.96109000      -1.67603300
H       -0.62156500      -1.75131400      -0.01233800
H        2.62774200      -0.75804200       1.02372400
