15
Extracted from Q-Chem output
C       1.305515     -0.634891     -0.308945
C      -0.004010     -0.012571      0.192296
C      -0.077108      1.468692     -0.200734
C      -1.210379     -0.776490     -0.368480
C      -0.034074     -0.107236      1.662992
N      -0.059027     -0.182074      2.807971
H       2.171008     -0.114864      0.103193
H       1.373547     -1.686671     -0.028342
H       1.346654     -0.564871     -1.397789
H       0.770114      2.023662      0.203674
H      -0.995158      1.927374      0.168236
H      -0.059751      1.556132     -1.288931
H      -1.174629     -1.829191     -0.085329
H      -1.205733     -0.711782     -1.458417
H      -2.146971     -0.355219     -0.001395
