17
Extracted from Q-Chem output
C       2.232985      0.806418     -0.053499
O       1.071528      0.711972      0.748489
C       0.705809     -0.569547      1.031712
C      -0.669971     -0.558428      1.648781
C      -0.991466     -0.841699      0.220062
C      -1.532365      0.253443     -0.649819
O      -1.451530     -0.044386     -2.029814
H       2.004884      0.557208     -1.096617
H       3.006805      0.128269      0.310348
H       2.577392      1.838147     -0.002722
H       0.306799     -1.137275     -0.060803
H      -0.878232     -1.349355      2.359628
H      -0.982348      0.418848      2.007870
H      -1.342467     -1.844865     -0.008736
H      -2.595580      0.393930     -0.440604
H      -1.024640      1.194813     -0.407212
H      -0.528532     -0.050880     -2.289702
