12
Extracted from Q-Chem output
C      -0.802699      0.981999      0.814410
C       0.051976      0.752515     -0.248067
N      -0.323164      0.564406     -1.491208
N       1.282541      0.172242      0.136164
C       0.689730     -1.222501      0.170971
O       0.317888     -1.619065     -0.995828
H      -0.196702     -1.017952      0.910268
H      -1.868935      1.101320      0.658854
H      -0.394684      1.191139      1.794511
H      -1.332325      0.689384     -1.588680
H       1.901994      0.178964     -0.670183
H       1.299095     -1.949085      0.729945
