16
Extracted from Q-Chem output
C       0.920098     -0.709886      0.947693
C       0.792946      0.231365     -0.233449
C      -0.420581     -0.056284     -1.046307
C      -1.425862     -1.149912     -0.780658
C      -0.326850      1.292511     -0.303125
C      -0.019352      1.776138      0.981857
N       1.006125      2.059166      1.526879
H      -0.018400     -0.853325      1.496398
H       1.224968     -1.685542      0.559952
H       1.669960     -0.381857      1.664178
H       1.645630      1.384890      0.531260
H      -0.362782      0.194572     -2.102517
H      -2.361469     -0.925525     -1.295151
H      -1.051423     -2.099370     -1.170389
H      -1.648900     -1.282888      0.275021
H      -0.201661      2.116644     -0.993953
