15
Extracted from Q-Chem output
C       1.655317     -0.083400      0.864938
C       0.500882      0.211891     -0.034111
C      -0.121387     -0.792890     -0.961692
C      -0.922474     -0.202309      0.169904
O      -1.408299     -0.875696      1.248990
C      -0.975177      1.794883     -0.134332
O       0.367708      1.529973     -0.486018
H       2.591243      0.086519      0.330942
H       1.628825     -1.119147      1.203373
H       1.627863      0.568782      1.738913
H      -0.339661     -0.525821     -1.987734
H       0.174540     -1.819668     -0.785151
H      -2.102646     -1.476517      0.966143
H      -1.640621      0.678389     -0.364288
H      -1.009662      1.903074      0.965626
