11
Extracted from Q-Chem output
C      -1.788651     -0.023090      0.078669
C      -0.347875     -0.441329      0.182381
N       0.094481     -1.524956      0.566419
O       2.414637     -1.144023     -0.142442
C       2.040232      0.007988     -0.287769
C       0.759562      0.507707      0.015874
H      -2.454300     -0.827668      0.381598
H      -1.956503      0.851254      0.707329
H      -1.983107      0.251572     -0.958543
H       2.700738      0.748979     -0.778898
H       0.594858      1.533219      0.327790
