12
Extracted from Q-Chem output
O       0.175939     -1.760157     -0.376480
C      -0.011916     -0.381084     -0.614121
C      -1.172184      0.211297      0.191617
C      -0.571106      0.815056      1.438388
O       0.700267      0.927854      1.212816
C       1.138823      0.470689     -0.116084
H       0.170490     -1.925694      0.569541
H      -1.648431      1.053125     -0.327049
H      -1.963221     -0.505540      0.412492
H      -0.143954     -0.283754     -1.690668
H       2.069892     -0.077731      0.009670
H       1.306736      1.364241     -0.718169
