12
Extracted from Q-Chem output
O       0.217759     -1.464980     -1.127089
C       0.048615     -0.350040     -0.360224
C      -1.100249     -0.041148      0.508723
C      -0.721057      1.342816     -0.071227
O       0.547677      1.595480      0.474774
C       1.229586      0.361019      0.264721
H      -0.519550     -2.064100     -0.991476
H      -2.062873     -0.387732      0.140167
H      -0.974831     -0.155831      1.581501
H      -0.274186      0.655035     -1.174739
H       1.606040     -0.112519      1.177549
H       2.054405      0.530302     -0.430726
