14
Extracted from Q-Chem output
C       2.454792      0.095193      0.081881
N       1.174424     -0.241348      0.560170
C       0.239214      0.562595     -0.097334
C      -0.956563     -0.219552      0.077037
C      -2.321895      0.004076     -0.459373
N      -0.670992     -1.211511      0.898827
N       0.646746     -1.239138      1.180746
H       2.641257     -0.364755     -0.882841
H       3.266941     -0.008724      0.794530
H       1.303059      0.916221     -0.795125
H       0.198939      1.580470      0.294002
H      -3.012476     -0.709994     -0.014889
H      -2.668280      1.016857     -0.241858
H      -2.335946     -0.120146     -1.543938
