16
Extracted from Q-Chem output
C      -1.471371      0.628825     -0.281628
C      -0.619088     -0.189387      0.668106
C      -0.388958     -1.650195      0.257650
O       0.988274     -1.398287     -0.049377
C       0.917484     -0.081661      0.529728
C       1.541615      0.975049     -0.344900
H      -1.383821      1.698541     -0.079136
H      -2.523899      0.356363     -0.177596
H      -1.188560      0.457735     -1.322337
H      -0.969230     -0.060912      1.693074
H      -0.943807     -1.997325     -0.619263
H      -0.497940     -2.381985      1.064859
H       1.410014     -0.083231      1.510581
H       2.603612      0.761349     -0.477807
H       1.449605      1.959735      0.119530
H       1.076068      1.005387     -1.330231
