10
Extracted from Q-Chem output
O       1.802303      0.101224      0.884919
C       1.020442     -0.485092     -0.137075
C      -0.367035      0.014245     -0.192423
O      -0.712871      1.244871     -0.764970
C      -1.627726     -0.221981      0.151998
O      -2.069307      0.977376     -0.388900
H       1.804686      1.052977      0.764601
H       1.488273     -0.350205     -1.120246
H       0.991350     -1.555146      0.069251
H      -2.280541     -0.927424      0.633005
