8
Extracted from Q-Chem output
O       1.270169     -1.439274     -0.064889
C       1.202008     -0.226025     -0.033766
C       0.023664      0.557457     -0.088459
C      -1.262087     -0.066418      0.206561
N      -1.236628     -1.261397     -0.089694
H       2.111494      0.382192      0.144069
H       0.019117      1.554094     -0.514464
H      -2.156406      0.517469      0.442511
