18
Extracted from Q-Chem output
C      -0.695538     -1.178081     -0.777873
C      -0.742992      0.251550     -0.244951
C      -1.816048      0.424399      0.822375
N       0.540024      0.766417      0.278230
C       1.253642     -0.012922      1.055041
C       1.527049      1.132958     -1.193980
O       1.555720      2.166294     -1.687455
H      -0.535471     -1.909789      0.016881
H      -1.644947     -1.424834     -1.256243
H       0.097314     -1.298866     -1.518272
H      -0.992276      0.913139     -1.080284
H      -1.835725      1.452160      1.185420
H      -2.799477      0.178655      0.416646
H      -1.627937     -0.235048      1.673161
H       2.017571      0.446050      1.675285
H       0.899294     -0.993240      1.367993
H       2.392472     -0.555392      0.013590
H       2.407328     -0.123450     -0.745567
