15
Extracted from Q-Chem output
O      -1.764729      0.752303      1.642785
C      -1.258431     -0.130920     -0.148007
C       0.023433     -0.793029     -0.120194
C       0.739766     -0.091730      1.059412
C       1.702233      0.523602      0.209140
O       2.677451      1.229206      0.337198
C       1.070580     -0.111837     -1.050603
H      -2.020896      0.115355      2.319252
H      -2.203846     -0.658150     -0.084168
H      -1.307757      0.866018     -0.566195
H      -0.028015     -1.882380     -0.139649
H      -0.783134      0.875458      1.740657
H       0.743680     -0.401580      2.098276
H       0.690325      0.559732     -1.824411
H       1.720776     -0.856957     -1.510539
