11
Extracted from Q-Chem output
N       2.186006     -0.030715     -0.248220
C       0.942671      0.071508     -0.078868
C       0.236790      1.288804     -0.527826
C      -0.998994      1.681704     -0.503335
C      -1.200718     -0.842213      0.435211
O       0.204572     -0.873502      0.540148
H       2.522888     -0.922518      0.107127
H       0.858539      2.064043     -0.985704
H      -1.600554      0.173707      0.606772
H      -1.534331     -1.203008     -0.539479
H      -1.589527     -1.482192      1.224244
