16
Extracted from Q-Chem output
C       1.469610      1.168598     -0.088649
C       0.897689     -0.582337      0.546720
C      -0.478431     -0.631192      0.958531
C      -1.070101     -1.223726     -0.400741
C      -0.545414      0.096875     -0.952423
C      -0.961674      0.765626      0.348475
N       0.957950     -0.082676     -0.755115
H       2.519167      1.043404      0.166655
H       1.357320      2.027368     -0.752748
H       1.785853     -0.970780      1.028281
H      -0.737799     -0.994835      1.946772
H      -0.645304     -2.171841     -0.746262
H      -2.155166     -1.272387     -0.399483
H      -0.781234      0.469190     -1.945680
H       0.504483      1.446712      0.632615
H      -2.039535      0.923582      0.405016
