12
Extracted from Q-Chem output
O       0.264543     -1.454370     -0.804655
C       0.013957     -0.179707     -0.268145
C      -1.271358     -0.110907      0.523060
C       0.183978      0.947809     -1.314268
O       1.211749      1.453038     -0.664569
C       1.262477      0.434392      0.377689
H      -0.266649     -1.550956     -1.600585
H      -2.115783     -0.363279     -0.120698
H      -1.237972     -0.819854      1.352338
H      -1.439807      0.892064      0.921530
H       1.167035      0.881389      1.367341
H       2.171730     -0.157129      0.292648
