13
Extracted from Q-Chem output
N       1.788500     -1.832667      0.127257
C       1.234464     -0.835923      0.253077
C       0.495342      0.429703      0.415071
C       0.249415      1.101498     -0.953900
C      -0.423844      0.421189     -2.045323
C      -1.208106     -0.801433      1.483526
N      -0.779635      0.317786      1.098451
H       1.120515      1.092585      1.020125
H       1.208850      1.183887     -1.520732
H      -0.073387      2.134903     -0.812590
H      -0.360611     -0.670996     -1.861657
H      -0.667225     -1.744878      1.357224
H      -2.175739     -0.835638      1.978164
