14
Extracted from Q-Chem output
C      -2.279472     -0.548859     -0.366197
N      -1.413271      0.031813      0.640507
C      -0.225541      0.249873      0.350870
C       1.034113      0.837004      0.958949
C       1.816138     -0.340147      0.340432
C       0.856191      0.197467     -0.740469
O       1.211166      1.563414     -0.316038
H      -1.774512     -0.758662     -1.316439
H      -3.110980      0.132640     -0.553256
H      -2.702828     -1.477046      0.021592
H       1.194281      1.377981      1.886666
H       1.645277     -1.340718      0.737863
H       2.863113     -0.116376      0.143433
H       0.820469     -0.010987     -1.806018
