12
Extracted from Q-Chem output
O       2.289879     -1.033070      0.998010
N       1.643806     -0.009255      0.630154
C       0.460945      0.022478      0.137976
C      -0.476057      1.101735     -0.322040
N      -1.529410      0.056258     -0.391833
C      -0.554611     -1.034710     -0.116057
H       2.116756      0.895394      0.734530
H      -0.205123      1.547122     -1.285950
H      -0.700024      1.901369      0.388777
H      -1.973001     -0.010901     -1.296059
H      -0.314460     -1.681953     -0.966617
H      -0.814195     -1.662718      0.739159
