12
smiles: [C:1]1([H:5])([H:6])[C:2]([H:8])=[C:3]([H:10])[C:4]1([H:11])[H:12].[H:7][H:9]
C       -0.41028700      -0.96535900       0.37516700
C        0.14806400       0.14491700       1.23528800
C        1.07333700       0.50392200       0.34838500
C        0.67495000      -0.54525400      -0.66432600
H       -1.44123500      -0.83286100       0.04023900
H       -0.29769100      -1.97594500       0.77346300
H       -1.45486100       1.71421400      -0.81874900
H       -0.12215000       0.50747400       2.21960700
H       -1.85831400       1.73607300      -1.44414400
H        1.84025200       1.26890800       0.33997700
H        0.28114400      -0.16590600      -1.60964700
H        1.42609500      -1.30858200      -0.87807600
