13
Extracted from Q-Chem output
C       2.222569     -0.125093      0.076525
C       0.989701      0.581415     -0.238798
N       0.204214      1.368998     -0.580559
C      -1.618139      0.659397     -0.125172
C      -1.293286     -0.741987     -0.206140
O      -0.303679     -1.181763      0.477259
H       2.207435     -0.403773      1.128172
H       3.079445      0.514391     -0.138076
H       2.271417     -1.039120     -0.511165
H      -1.544192      1.128853      0.847169
H      -2.310835      1.095172     -0.839207
H      -1.535791     -1.201076     -1.180923
H      -2.382365     -0.693333      0.338538
