11
Extracted from Q-Chem output
C      -1.207217     -0.469467     -0.499882
C      -0.183290      0.194873      0.401399
C       1.196252     -0.182278      0.177635
C       2.322514     -0.547060      0.008001
C      -0.192968      1.902759     -0.244285
N      -0.461169      1.958425      0.909697
H      -1.211293     -1.538939     -0.276931
H      -2.198879     -0.067509     -0.298323
H      -0.965895     -0.321493     -1.549562
H      -0.434315      0.003287      1.443113
H       3.327492     -0.861946     -0.148243
