15
Extracted from Q-Chem output
C      -2.523570      0.112180      0.832358
N      -1.153067      0.576896      0.757430
C       0.908456      0.270411     -0.924912
C       2.028912     -0.672478     -0.561631
O       3.009576     -0.066687      0.262748
C      -0.370407      0.244697     -0.269360
N      -0.412209     -0.329987     -1.388713
H      -2.596900     -0.882983      1.279040
H      -3.116311      0.811466      1.420706
H      -2.935944      0.070145     -0.175062
H      -0.727916      0.997251      1.561621
H       1.230474      1.179709     -1.432886
H       2.555575     -0.981267     -1.466660
H       1.609539     -1.573963     -0.098131
H       2.591983      0.200783      1.083126
