15
Extracted from Q-Chem output
C      -2.255769      0.548263      0.639460
N      -1.008691     -0.198153      0.653509
C       0.650312      0.073942     -0.602341
C       2.023140     -0.353151     -0.258112
O       2.954280      0.687676     -0.123718
C      -0.490494     -0.812321     -0.600450
N      -0.871795     -1.688782     -1.351498
H      -3.117960     -0.120574      0.585538
H      -2.341418      1.176205      1.526832
H      -2.271728      1.184368     -0.246577
H      -0.866808     -0.768580      1.478383
H       0.532193      1.079658     -1.004740
H       2.341883     -0.978234     -1.102386
H       2.003583     -1.021007      0.612523
H       2.792462      1.149307      0.700931
