16
Extracted from Q-Chem output
N       1.434022      0.369350      1.356739
C       1.296014     -0.921977      0.993803
O       1.895218     -1.836807      1.524503
C       0.328345     -1.205131     -0.153566
C      -0.971605     -0.384716     -0.189922
C      -0.779413      0.867289     -1.018149
O      -0.022321      1.862607     -0.556150
H       2.116555      0.577228      2.063566
H       1.009837      1.115954      0.812545
H       0.885414     -1.081909     -1.088826
H       0.091715     -2.264380     -0.074637
H      -1.766276     -0.984323     -0.640260
H      -1.280179     -0.111984      0.820629
H      -0.721992      0.659777     -2.099905
H      -2.093047      1.335813     -1.056003
H      -1.426469      1.948238     -0.754444
