11
Extracted from Q-Chem output
N      -1.595608      0.081643     -0.105834
C      -0.540690      0.044623      0.696867
C       0.500365     -0.954014      0.618696
C       1.289171     -0.325418     -0.292288
N       0.857703      0.964284     -0.585954
N       0.097626      1.274586      0.593516
H      -1.969645     -0.842347     -0.302961
H      -0.564502      0.482636     -1.019357
H       0.446567     -1.999832      0.867588
H       2.095117     -0.747855     -0.875263
H      -0.567246      2.002550      0.361385
