18
Extracted from Q-Chem output
C       1.850549     -0.631278      0.054907
C       0.558042      0.072602      0.454877
C       0.560183      1.528684      0.001978
C      -0.672112     -0.710067     -0.040982
C      -2.005066     -0.161725      0.454259
C      -0.685897     -0.798783     -2.634780
N      -0.683363     -0.772800     -1.471969
H       1.860104     -1.671507      0.388597
H       2.713152     -0.130389      0.497108
H       1.979962     -0.624670     -1.029578
H       0.480462      0.049268      1.547866
H       1.447688      2.037090      0.381790
H      -0.311659      2.075227      0.363812
H       0.577838      1.597794     -1.088193
H      -0.567171     -1.742133      0.306256
H      -2.821750     -0.816672      0.151601
H      -1.996322     -0.098607      1.543427
H      -2.198136      0.830532      0.047372
