18
Extracted from Q-Chem output
C       1.844312     -0.633685     -0.075389
C       0.579064      0.068934      0.403560
C       0.595249      1.552015      0.059728
C      -0.686739     -0.682933     -0.012387
C      -2.018804     -0.080387      0.367070
C      -0.674407     -0.440525     -1.855359
N      -0.758389     -1.596969     -1.617582
H       1.823038     -1.702215      0.149000
H       2.721375     -0.201027      0.408168
H       1.963515     -0.522545     -1.154443
H       0.546623     -0.020367      1.499110
H       1.497491      2.013568      0.465041
H      -0.261866      2.079369      0.480918
H       0.588294      1.699380     -1.020916
H      -0.612653     -1.686484      0.400720
H      -2.831949     -0.742407      0.073837
H      -2.048429      0.038057      1.454200
H      -2.179221      0.890789     -0.096928
