15
Extracted from Q-Chem output
C       2.272095     -0.324864      0.287790
N       1.135750      0.121600     -0.540229
C       0.727329      1.547267     -0.247503
C      -0.585485      1.355160      0.018539
C      -0.954515     -0.046344     -0.088953
C      -2.310955     -0.613888      0.140971
N       0.029445     -0.813058     -0.415458
H       3.104072      0.353066      0.118256
H       2.523615     -1.349648      0.022686
H       1.959485     -0.270995      1.328098
H       1.416935      0.103521     -1.520019
H      -1.285708      2.134371      0.285516
H      -3.022792     -0.167213     -0.555732
H      -2.648332     -0.369268      1.149887
H      -2.309903     -1.694289      0.011793
