15
Extracted from Q-Chem output
C       2.406495     -0.456515      0.206275
N       1.089374      0.051622     -0.153451
C       0.725290      1.473649     -0.070210
C      -0.650797      1.345319     -0.060761
C      -1.014974     -0.020669     -0.001722
C      -2.384538     -0.602541      0.094292
N       0.039899     -0.807369     -0.065984
H       3.145229      0.293840     -0.065124
H       2.582254     -1.392768     -0.319322
H       2.436903     -0.624044      1.281182
H       1.210671      0.758181     -1.119210
H      -1.341771      2.174663     -0.089636
H      -2.978275     -0.338135     -0.782452
H      -2.901447     -0.211102      0.971669
H      -2.332062     -1.687326      0.167960
