10
Extracted from Q-Chem output
N      -1.738413      1.292233     -0.479356
C      -1.080745      0.150811     -0.526006
O      -0.132934      0.193254      0.425410
C       0.688130     -0.954200      0.487663
C       2.060635     -0.630751      0.078845
N       3.139074     -0.396341     -0.229905
H      -1.509941      2.037534      0.167836
H      -2.491200      1.436792     -1.125726
H       0.705212     -1.315333      1.517245
H       0.286677     -1.729443     -0.167358
