12
Extracted from Q-Chem output
C      -0.938448     -1.039014     -0.164550
C       0.075665      0.025722      0.156765
C      -0.294085      1.440069      0.211072
O      -0.088558      0.684002      1.395018
C       2.178015      0.314797     -1.036967
C       1.499628     -0.350736     -0.161714
H      -0.710726     -1.956119      0.382232
H      -0.928492     -1.263394     -1.231785
H      -1.935221     -0.704537      0.122458
H      -1.324660      1.720865      0.014671
H       0.452249      2.203225      0.013365
H       1.953212     -1.209740      0.329722
