14
Extracted from Q-Chem output
C       2.529153      0.353714      0.287056
O       1.373047      0.276331      0.917435
C       0.235107      0.020938      0.411506
C      -1.129518      0.047781      1.010273
C      -1.639455     -0.223392     -0.440015
C      -0.184140     -0.192573     -0.992962
H       2.574134      0.064408     -0.752225
H       3.377475      0.486432      0.932956
H      -1.444430      1.007846      1.430891
H      -1.359546     -0.736115      1.737099
H      -2.285291      0.556953     -0.837797
H      -2.134121     -1.185718     -0.557428
H       0.048630      0.642150     -1.668936
H       0.169468     -1.113188     -1.472220
