16
Extracted from Q-Chem output
C      -1.275840      1.429022     -0.097890
C      -0.060982      0.569171     -0.013172
C       0.056181     -0.785382      0.177243
C      -1.085637     -1.740946      0.362117
C       1.446857     -1.170735      0.240996
C       2.104682      0.066957     -0.071615
N       1.183727      1.105000     -0.156088
H      -2.175684      0.817991     -0.060941
H      -1.293465      2.002740     -1.027476
H      -1.314849      2.135723      0.734267
H      -0.714522     -2.760829      0.272218
H      -1.871474     -1.599389     -0.384774
H      -1.548465     -1.644809      1.348260
H       2.027869     -0.758334     -0.975064
H       3.157228      0.289358      0.043261
H       1.377295      2.059786     -0.399837
