14
smiles: [H:12][H:14].[O:1]([C@@:2]1([H:8])[C:3]([H:9])([H:10])[C:4]([H:11])([H:13])[C:5]1=[O:6])[H:7]
O       -0.74165000      -1.50990600       1.11942700
C       -0.45248700      -1.01670900      -0.14634400
C       -0.95188500       0.38514700      -0.60121500
C        0.40358800       0.62244700      -1.31872700
C        0.94469300      -0.47717500      -0.41626400
O        1.98366800      -0.66566300       0.14376600
H        0.05080500      -1.43164000       1.65884300
H       -0.72142400      -1.75838000      -0.90783300
H       -1.85249200       0.40350100      -1.21008500
H       -1.07031200       1.04347800       0.25888500
H        0.88479300       1.59407600      -1.22788000
H        0.67133900       1.68516400       2.58574800
H        0.38608600       0.31889800      -2.36649100
H        0.51008700       0.96857900       2.46334400
