19
Extracted from Q-Chem output
C       2.358989      0.497009     -0.603958
C       1.149036     -0.421732     -0.718478
C       0.213645     -0.303416      0.469959
C      -0.566737      1.014640      0.653004
C      -1.911352      0.274326      0.776060
C      -2.052130     -1.076010     -0.634058
C      -1.110824     -1.104169      0.427918
H       3.004689      0.415402     -1.479695
H       2.958678      0.252023      0.276142
H       2.055381      1.543237     -0.514721
H       0.598671     -0.191919     -1.636036
H       1.478545     -1.461705     -0.810560
H       0.757830     -0.551510      1.385391
H      -0.535974      1.669115     -0.219294
H      -0.295440      1.599005      1.531025
H      -2.356089      0.173164      1.761237
H      -2.714152      0.588480      0.097757
H      -1.679779     -0.404739     -1.429254
H      -1.244665     -1.878335      1.181353
