19
Extracted from Q-Chem output
C       2.350901      0.474341     -0.644052
C       1.145007     -0.454176     -0.719575
C       0.223207     -0.307426      0.475429
C      -0.560978      1.016937      0.667746
C      -1.861944      0.220903      0.812324
C      -2.080478     -0.877056     -0.591563
C      -1.115087     -1.086045      0.484884
H       2.995320      0.363876     -1.517565
H       2.954098      0.266157      0.243145
H       2.041375      1.521455     -0.592946
H       0.586435     -0.256607     -1.639762
H       1.479885     -1.494675     -0.782694
H       0.781234     -0.531381      1.388961
H      -0.554545      1.701179     -0.182035
H      -0.286711      1.573501      1.562928
H      -2.489592      0.235539      1.696842
H      -2.703584      0.291934     -0.017758
H      -1.629160     -0.255588     -1.378857
H      -1.234564     -1.959148      1.118508
