12
Extracted from Q-Chem output
N      -0.568435     -1.292616      0.570035
C      -0.430622      0.069133      0.824368
O      -1.344947      0.567961      1.690052
C       0.500713      0.874284      0.325388
O       1.398823      0.445761     -0.658101
C       0.942545      0.248332     -1.906816
O      -0.192233      0.296842     -2.267796
H       0.202887     -1.672595      0.043406
H      -1.443974     -1.513273      0.113651
H       0.642394      1.889410      0.660095
H      -1.585483     -0.139124      2.296783
H       1.797904      0.010362     -2.554015
