9
Extracted from Q-Chem output
O      -1.833666      1.065570     -0.003361
C      -0.707634      0.469269      0.000417
N       0.615322      0.726912      0.032061
C       1.207666     -0.533259      0.006576
N       0.328534     -1.481302     -0.036477
N      -0.872474     -0.830382     -0.039607
H       1.068890      1.620662      0.064938
H       2.275587     -0.679183      0.022173
H      -2.080338     -0.303709     -0.047048
