13
Extracted from Q-Chem output
O       1.022535      2.144275     -0.271743
C       0.581231      1.046834     -0.060682
C       1.471970     -0.172075     -0.168040
O       0.989770     -1.340512      0.548255
C      -0.258047     -1.698306      0.609923
C      -1.182158     -0.709302     -0.055847
C      -0.850049      0.745649      0.276523
H       2.461154      0.043334      0.228205
H       1.568896     -0.439143     -1.224262
H      -1.493271      1.459375     -0.238272
H      -2.208220     -0.955350      0.210184
H      -1.092717     -0.892322     -1.138099
H      -0.976569      0.920865      1.350245
