16
smiles: [C:1]([C@@:2]1([H:10])[C:3]([H:11])([H:12])[C:4]([H:13])([H:14])[C-:5]=[O+:6]1)([H:7])([H:8])[H:9].[H:15][H:16]
C        1.90987200       0.06948400       0.55002500
C        0.76740000       0.57724700      -0.29236400
C       -0.10695400      -0.46125200      -0.96924400
C       -1.50950000       0.13390500      -0.80655500
C       -1.43614800       1.09627700       0.35405300
O       -0.18269900       1.29828200       0.59180600
H        2.41279400       0.89121500       1.05998000
H        2.63936100      -0.44173700      -0.08072400
H        1.54799500      -0.63660000       1.29966100
H        1.11707700       1.33297100      -1.00082700
H        0.17812100      -0.61928700      -2.00834900
H       -0.03119400      -1.41833100      -0.44835300
H       -2.30635000      -0.59418200      -0.65728600
H       -1.81245500       0.74887800      -1.66371400
H       -1.55231500      -1.61420500       2.31135900
H       -1.71564200      -0.89464800       2.21115100
