7
Extracted from Q-Chem output
O      -0.698134     -1.899217      0.443395
C      -0.921105     -0.779979      0.199016
C       0.355720      0.315941     -0.076122
C       1.567211      0.461557     -0.147414
C      -1.943105      0.233769      0.001581
N      -1.038400      1.125537     -0.213810
H       2.627596      0.575655     -0.207792
