15
Extracted from Q-Chem output
O      -0.035286     -0.825517     -1.500886
C       0.015565     -0.374934     -0.336626
C       0.852336     -0.893916      0.832512
C       1.282371      0.381301      0.176502
O       2.249645      0.393123     -0.798619
C      -1.731838     -0.171179      0.394144
C      -1.270505      1.041391     -0.038688
H       1.837220     -0.039993     -1.568521
H       0.494366     -0.837019      1.852190
H       1.380435     -1.802793      0.571323
H       1.260553      1.291008      0.761692
H      -1.776567     -0.397671      1.450472
H      -2.216434     -0.862158     -0.280120
H      -1.356821      1.338756     -1.074218
H      -0.948726      1.794348      0.667552
