14
Extracted from Q-Chem output
C       1.195657     -0.247397     -0.654318
C       0.149216     -1.220624     -0.255134
C      -1.420878      0.091302     -0.028311
C      -0.597058     -0.713904      0.901741
N       0.328533      0.279296      1.485641
C       0.729475      0.905819      0.264417
C      -0.681331      1.252708     -0.106573
H       1.224491     -0.046085     -1.728761
H       2.189405     -0.563436     -0.330733
H      -0.014989     -2.182392     -0.728457
H      -2.414778     -0.117729     -0.392145
H      -1.081632     -1.397078      1.590725
H       1.422129      1.732032      0.399853
H      -1.026387      2.231884     -0.414466
