14
Extracted from Q-Chem output
C       0.249476      1.355113      0.063377
C      -0.249935     -0.057964     -0.162158
C      -1.738937     -0.207091      0.059911
O       0.379481     -0.953250      0.810509
C       1.552533     -1.491432      0.661487
O       2.094124     -1.096334     -0.495418
H      -0.256341      2.039209     -0.620575
H       0.036040      1.671690      1.086058
H       1.322361      1.427753     -0.109869
H       0.020455     -0.400733     -1.161032
H      -2.050930     -1.240784     -0.090129
H      -2.286826      0.424979     -0.640970
H      -2.006282      0.089480      1.075627
H       2.945921     -1.535362     -0.551601
