15
smiles: [H:9][H:11].[O:1]=[C:2]1[C:3]([H:8])=[C:4]([H:10])[C:5]([H:12])([H:13])[C:6]([H:14])=[C:7]1[H:15]
O        0.84136700      -2.71516900       0.01034100
C        0.56926300      -1.54156900      -0.13964200
C       -0.69765800      -1.10819800      -0.76367400
C       -0.99435600       0.17850700      -0.92443900
C       -0.08842500       1.27983600      -0.49280200
C        1.18464400       0.81836300       0.12893400
C        1.48673500      -0.46693600       0.29160900
H       -1.36878300      -1.89770400      -1.08003300
H       -1.47721400      -0.01039500       2.02935600
H       -1.93346500       0.46792700      -1.38578400
H       -1.47049800       0.37580000       2.66590900
H        0.13692600       1.92652200      -1.35022400
H       -0.62133400       1.93492200       0.20812500
H        1.87960600       1.58625500       0.45419900
H        2.41670900      -0.78851200       0.74510900
