15
Extracted from Q-Chem output
O       0.971668     -2.688237     -0.230785
C       0.553984     -1.543160     -0.104819
C      -0.787937     -1.129404     -0.357481
C      -1.158925      0.275014     -0.153704
C      -0.078660      1.299239     -0.369409
C       1.226915      0.829143      0.205360
C       1.496828     -0.465271      0.342173
H      -1.551824     -1.852976     -0.600267
H      -1.184069     -0.318870      0.952567
H      -2.157823      0.536902     -0.489131
H      -1.434501      0.613762      1.206284
H       0.011049      1.403894     -1.459261
H      -0.369768      2.272610      0.027925
H       1.962110      1.583945      0.461257
H       2.448925     -0.811769      0.726710
