8
Extracted from Q-Chem output
O       0.379857      0.891603     -0.334486
C      -0.931544      0.279350     -0.083779
C      -0.671656     -1.087999      0.421048
N       0.700934     -1.197402      0.436733
C       1.192962     -0.061509      0.004328
H      -1.458201      0.898104      0.645211
H      -1.484138      0.275069     -1.025303
H       2.251988      0.153382     -0.097724
