8
Extracted from Q-Chem output
O       0.398914      0.999284     -0.007231
C      -0.844415      0.427820      0.176116
C      -0.767255     -0.976154      0.312037
N       0.630197     -1.219536      0.085460
C       1.199667     -0.082297     -0.031562
H      -1.649291      1.113780      0.398196
H      -1.248672     -0.279514     -0.771850
H       2.254560      0.117009     -0.165660
