10
smiles: [N:1](=[C:2]=[O:3])[H:8].[O:4]=[C:5]([N:6]([H:7])[H:10])[H:9]
N       -1.86934700      -0.52237800      -0.05489200
C       -1.64773000      -1.21462800       0.90945700
O       -1.31047000      -1.83019400       1.83283600
O        1.42051700      -0.40013800       0.89149500
C        1.70271700       0.43115900       0.06502900
N        0.83217100       0.96306000      -0.82473300
H       -0.12681700       0.66204500      -0.81357500
H       -2.74485400      -0.46235000      -0.54079500
H        2.72315100       0.84270000      -0.04167200
H        1.12314200       1.65563300      -1.48804800
