10
Extracted from Q-Chem output
N      -1.383979     -0.365543     -0.191481
C      -0.868006     -0.879147      0.883414
O      -1.144570     -1.570688      1.803193
O       0.671189     -0.410457      0.993151
C       1.237770      0.342435      0.132546
N       0.644163      0.809632     -0.914695
H      -0.435247      0.424430     -0.902439
H      -2.351008     -0.640225     -0.293277
H       2.283534      0.574256      0.340418
H       1.155206      1.396918     -1.549668
