9
Extracted from Q-Chem output
O       2.131063     -0.383682     -0.321649
C       0.839409     -0.190859     -0.127840
N       0.358684      1.170526     -0.047401
N      -0.863831      1.110426      0.133363
C      -1.245053     -0.305248      0.181119
N      -0.054956     -1.075354     -0.000465
H       2.560052      0.476929     -0.380458
H      -1.726351     -0.496278      1.145259
H      -1.987036     -0.487221     -0.602410
