14
Extracted from Q-Chem output
O       2.284075      0.733346     -0.092527
C       1.083644      0.285404      0.167547
C      -0.255822      1.021922      0.057464
C      -0.947769     -0.359585     -0.029963
O      -1.891139     -0.563406     -1.047296
C       0.415244     -1.000758     -0.328289
H       1.912665      0.368862      1.177562
H       1.100707      0.021900      1.599462
H      -0.260074      1.508121     -0.922067
H      -0.538586      1.736481      0.827524
H      -1.342203     -0.678853      0.940170
H      -2.722895     -0.161801     -0.790010
H       0.579259     -1.038199     -1.408930
H       0.680919     -1.956874      0.115981
