11
Extracted from Q-Chem output
O      -1.718046      1.818432      0.530618
C      -0.814813      1.061295      0.350733
C      -0.895103     -0.312166     -0.314783
C       0.544888     -0.804289     -0.299135
C       1.245395      0.331614      0.397451
N       0.541565      1.329316      0.747563
H      -1.316470     -0.202035     -1.313364
H      -1.576350     -0.940387      0.258831
H       0.689184     -1.736999      0.250450
H       2.314396      0.316341      0.599350
H       0.970772     -0.955051     -1.293882
