11
Extracted from Q-Chem output
O      -1.575793      1.947998      0.149892
C      -0.712400      1.105011      0.142642
C      -0.958695     -0.388427     -0.188392
C       0.381222     -1.000056     -0.059953
C       1.233073      0.012355      0.354053
N       0.625246      1.301179      0.456640
H      -1.471579     -0.540160     -1.139236
H      -1.620530     -0.783546      0.591964
H       0.664237     -2.025095     -0.250389
H       2.265755     -0.106614      0.657584
H       1.157117      0.446618     -0.737879
