13
Extracted from Q-Chem output
C       2.049067     -0.846393     -0.346066
C       1.829547      0.509117     -0.129492
C       0.549746      0.960788      0.191724
N      -0.494586      0.206097      0.460514
C      -0.988908     -1.052616      0.041230
C      -1.884743      0.156778      0.130088
H       3.106228     -0.985978     -0.629414
H       0.350630      2.027828      0.282577
H       2.573463      1.305242     -0.216437
H      -1.055455     -1.816787      0.806080
H      -0.648710     -1.397440     -0.927028
H      -2.577508      0.245920      0.958905
H      -2.190500      0.636386     -0.793466
