15
Extracted from Q-Chem output
O       1.382481      0.979353      1.500561
C       1.026431      1.275966      0.168005
C       0.844899      0.027861     -0.687420
C      -0.453956     -0.701072     -0.493397
O      -0.546841     -1.126391      1.171583
C      -1.726713     -0.002726     -0.451658
C      -1.973238     -0.292410      0.781222
H       0.738027      0.357506      1.849575
H       1.846701      1.869245     -0.238221
H       0.116630      1.886707      0.123532
H       1.682856     -0.654551     -0.525196
H       0.850712      0.309261     -1.746188
H      -0.471748     -1.675679     -0.983061
H      -0.689205     -2.073176      1.300430
H      -2.592491     -0.225008      1.658228
