12
Extracted from Q-Chem output
C       0.573859      1.301894      0.747798
C       0.858124      0.124692      1.060670
C       0.575894     -1.186623      0.673945
C      -0.558445     -1.160450     -0.730687
C      -0.858670      0.164070     -1.053505
C      -0.589997      1.328491     -0.684191
H       0.773600      2.320291      1.023284
H       0.041189     -1.771447      1.420137
H       1.433509     -1.739079      0.294497
H      -0.016476     -1.700524     -1.504964
H      -1.408321     -1.743017     -0.379840
H      -0.803039      2.356059     -0.911609
