19
smiles: [C:1](/[C:2]([O:3][H:12])=[C:4](\[C:5]([C:6](=[C:7]([H:17])[H:19])[H:16])([H:14])[H:15])[H:13])([H:8])([H:9])[H:10].[H:11][H:18]
C        1.72100400      -0.22473300      -0.92893700
C        1.42355000       0.31561900       0.42830900
O        2.46013200       0.06283700       1.27911100
C        0.31653100       0.95235200       0.80640500
C       -0.86726700       1.24913800      -0.07946900
C       -1.83090300       0.09943100      -0.17371700
C       -2.23161100      -0.46147200      -1.30413900
H        0.91616400      -0.02375800      -1.63113800
H        1.86406400      -1.30544400      -0.86782900
H        2.64806400       0.20903300      -1.30893500
H        0.03101900      -1.99740600       1.43877000
H        2.24877600       0.41598100       2.14698800
H        0.23899600       1.26371300       1.84606600
H       -0.54713000       1.53424100      -1.08463500
H       -1.39119700       2.11920700       0.32763900
H       -2.19816900      -0.29102600       0.77280100
H       -2.92130400      -1.29659400      -1.31147700
H        0.02594200      -2.65833400       1.78164300
H       -1.88120700      -0.10437700      -2.26770700
