19
Extracted from Q-Chem output
C       1.903644     -0.414894     -0.703787
C       1.114259      0.011938      0.505610
O       1.881242     -0.137282      1.651936
C       0.158986      1.016178      0.471091
C      -0.777088      1.319315     -0.647950
C      -1.746631      0.392538     -0.007609
C      -1.838110     -0.949403     -0.306239
H       1.263386     -0.481006     -1.582759
H       2.356946     -1.391193     -0.534203
H       2.697007      0.308102     -0.905164
H       0.253267     -1.235374      0.509703
H       1.366224      0.151442      2.408292
H      -0.018359      1.563879      1.391437
H      -0.438107      0.983144     -1.626644
H      -1.088784      2.360008     -0.700903
H      -2.302763      0.785039      0.836049
H      -2.583209     -1.546105      0.208206
H      -0.571406     -1.508948      0.274669
H      -1.584608     -1.292850     -1.305387
