13
Extracted from Q-Chem output
O       1.608559      1.877445      1.049046
C       1.903545      0.900546      0.417549
C       0.921457     -0.146235     -0.029970
C      -0.509539      0.152739      0.384642
C      -2.287906     -0.935456     -0.996764
N      -1.420882     -0.916577     -0.026231
H       2.956941      0.715243      0.123556
H       1.263458     -1.108265      0.370733
H       1.000836     -0.241307     -1.118866
H      -0.569435      0.283867      1.467029
H      -2.232589      0.061816     -1.480825
H      -0.857383      1.077728     -0.074231
H      -1.341549     -1.760456      0.528715
