14
Extracted from Q-Chem output
O       1.354659     -1.592549      0.701459
C       0.727623     -0.630952     -0.115591
C      -0.775054     -0.862551     -0.363471
C      -1.291223      0.532208     -0.586590
C      -0.422802      1.448205     -0.175799
C       0.821042      0.821268      0.390852
H       0.928828     -1.586033      1.561852
H       1.249629     -0.695680     -1.073035
H      -0.960798     -1.544711     -1.194795
H      -1.242520     -1.311641      0.523005
H      -2.268758      0.745557     -1.001347
H       0.802406      0.845135      1.488606
H      -0.588120      2.518204     -0.207343
H       1.745816      1.310976      0.081281
