14
Extracted from Q-Chem output
O       0.812378     -1.251657      1.234231
C       0.733059     -0.737983     -0.114868
C      -0.736918     -0.856017     -0.557330
C      -1.356424      0.464148     -0.231246
C      -0.302640      1.386029     -0.091314
C       0.987202      0.740672     -0.174484
H       1.658500     -0.983585      1.600143
H       1.390628     -1.333015     -0.752483
H      -0.734613     -0.959357     -1.653757
H      -1.220331     -1.735245     -0.130885
H      -2.407275      0.699605     -0.191985
H      -0.211994      0.889593      0.972904
H      -0.442145      2.456422      0.001991
H       1.911301      1.217826      0.118168
