14
Extracted from Q-Chem output
C      -1.112925     -1.051345      0.239500
C      -1.075145      0.347342     -0.420605
O      -0.660523      1.426575      0.425635
C       0.718301      1.264145      0.243344
C       1.263302      0.041389      0.677528
N       0.212241     -1.391348     -0.342511
C       0.301253     -0.095080     -0.910083
H      -1.159515     -0.993900      1.338937
H      -1.905501     -1.725390     -0.095590
H      -1.877837      0.645196     -1.095719
H       1.274028      2.077167     -0.200697
H       2.288985     -0.171718      0.404762
H       0.898513     -0.451044      1.572625
H       0.839412      0.080204     -1.842883
