14
Extracted from Q-Chem output
O       2.182423      1.116135     -0.760573
N       1.823870     -0.104125     -0.149141
C       0.456244     -0.316535     -0.196602
C      -0.357166     -1.364850     -0.357456
C      -1.608108     -0.578609     -0.020232
C      -0.657007      0.657623      0.097293
O      -0.615741      1.362427      1.310266
H       2.476156      1.661805     -0.026972
H       2.356184     -0.832178     -0.607145
H      -0.197686     -2.398986     -0.632645
H      -2.078916     -0.824656      0.934705
H      -2.382137     -0.519520     -0.789582
H      -0.813310      1.402064     -0.683571
H      -0.424227      0.738226      2.014675
