14
Extracted from Q-Chem output
C      -0.700722     -1.029198     -0.198114
C       0.129670      0.094571     -0.872791
C      -0.650087      1.078193      0.039234
C      -0.505045     -0.102792      1.014310
O       0.904364     -0.164148      1.249817
C       1.427975     -0.024550     -0.081652
H      -1.729014     -1.062439     -0.554207
H      -0.269381     -2.028860     -0.136721
H       0.201774      0.214818     -1.951353
H      -1.674029      1.239591     -0.293361
H      -0.172368      2.017253      0.320770
H      -1.042206     -0.194272      1.954342
H       2.020528     -0.904729     -0.346083
H       2.058541      0.866562     -0.144191
