14
Extracted from Q-Chem output
C      -0.880304     -0.931998     -0.437608
C       0.099933      0.197516     -0.839003
C      -0.635400      1.190212      0.080605
C      -0.340269      0.242353      1.201505
O       0.907047     -0.180406      1.276722
C       1.415063     -0.064978     -0.094599
H      -1.695147     -1.038148     -1.160133
H      -0.501407     -1.919973     -0.168878
H       0.227073      0.422796     -1.897631
H      -1.601581      0.002549      0.144251
H      -0.179005      2.184126      0.228646
H      -0.908579      0.068495      2.111417
H       1.927587     -1.003562     -0.308512
H       2.115792      0.768267     -0.146262
