9
Extracted from Q-Chem output
O      -0.088072      1.368406     -1.034999
C       0.096964      0.359287     -0.251682
C      -1.061416     -0.642181      0.068751
O      -2.133992     -0.503528     -0.416752
C       1.400743     -0.362097     -0.267895
N       2.381023     -0.955115     -0.311658
H       0.057365      1.484853      0.375902
H       0.188751      0.839800      1.107434
H      -0.791936     -1.461267      0.764405
