13
Extracted from Q-Chem output
C       1.563608     -0.606498      0.285612
C       0.135184     -0.245218      0.080049
C      -0.319264      1.204449     -0.014876
N      -1.169953      1.116137     -1.105583
C      -0.938240     -1.119446      0.000683
O      -2.029067     -0.846747     -0.523897
H       1.655455     -1.655565      0.570457
H       2.139511     -0.478892     -0.636241
H       2.037430      0.007896      1.057455
H      -0.693947      1.626641      0.924542
H       0.588067      1.734963     -0.334572
H      -2.137094      1.312086     -0.852539
H      -0.842740     -2.058890      0.566817
