14
Extracted from Q-Chem output
C       0.232868     -1.376899     -0.656303
C      -1.033582     -0.615692     -0.203433
C      -0.158647      0.605806      0.108155
O       0.192110      0.620345      1.516586
C       0.101498      1.666301      2.258814
C       0.976118     -0.023087     -0.711360
H       0.167262     -1.943660     -1.583640
H       0.621485     -2.026130      0.127241
H      -1.716712     -0.406253     -1.026864
H      -1.599106     -1.017295      0.636211
H      -0.516688      1.605689     -0.148593
H      -0.286247      2.498908      1.605710
H       1.007026      0.397748     -1.716791
H       1.969383      0.035978     -0.268635
