14
Extracted from Q-Chem output
C       0.342394     -1.212582     -0.420608
C      -1.085891     -0.671968     -0.299575
C      -0.641153      0.665197      0.285415
O      -0.621950      0.671780      1.666407
C       0.735937      0.970623      1.466536
C       0.913696      0.195767     -0.435619
H       0.565399     -1.832159     -1.288780
H       0.647261     -1.737313      0.483921
H      -1.542820     -0.514259     -1.277986
H      -1.779505     -1.208848      0.345310
H      -1.008192      1.603109     -0.131066
H       0.770698      2.047428      1.160749
H       0.715933      0.685353     -1.394048
H       1.957852      0.351479     -0.190519
