15
Extracted from Q-Chem output
O       2.494001      0.639941      0.790141
C       1.702979     -0.013772     -0.172471
C       0.385021     -0.488558      0.421169
O      -0.318555      0.641494      0.940823
C      -1.579377      0.786233      0.302978
C      -1.658040     -0.362080     -0.654039
C      -0.556331     -1.087216     -0.579139
H       1.941394      1.316160      1.192193
H       1.488983      0.642827     -1.027141
H       2.278822     -0.868999     -0.534203
H       0.602262     -1.172793      1.251751
H      -2.376239      0.757240      1.055625
H      -1.634293      1.756729     -0.204798
H      -2.508451     -0.544596     -1.296668
H      -0.331567     -1.979980     -1.146589
