15
Extracted from Q-Chem output
O       2.595066      0.650009      0.696939
C       1.685825      0.073419     -0.216715
C       0.449523     -0.421457      0.487436
O      -0.307167      0.664886      1.105946
C      -1.486149      0.274578      0.451946
C      -1.178475      0.153188     -1.369802
C      -0.781033     -0.819307     -0.336704
H       2.177000      1.429994      1.069263
H       1.399345      0.774274     -1.005707
H       2.193386     -0.777250     -0.678560
H       0.708702     -1.149257      1.261114
H      -2.373718      0.063361      1.041277
H      -1.744206      1.094199     -0.357572
H      -2.174052     -0.178984     -1.712716
H      -1.159823     -1.834707     -0.322586
