16
Extracted from Q-Chem output
C       1.930919      0.774640     -1.008793
O       0.601176      0.331182     -0.890349
C       0.455296     -0.764429      0.002070
C      -1.028954     -1.070481      0.115373
C      -1.875454     -0.171592      0.966310
O      -1.452327      1.530113      0.453894
H       2.582809     -0.032069     -1.364172
H       1.944470      1.587491     -1.733133
H       2.315065      1.141921     -0.049660
H       0.877087     -0.504462      0.982868
H       1.011641     -1.624703     -0.394510
H      -1.433069     -1.171238     -0.897086
H      -1.152710     -2.053426      0.588599
H      -2.377006      1.051813      0.349072
H      -1.467371     -0.091414      1.976581
H      -0.885000      1.365643     -0.318558
