16
Extracted from Q-Chem output
C       1.918739     -0.128378      0.012944
C       0.444178     -0.285851      0.345004
C      -0.372505     -1.060530     -0.703943
C      -1.791254     -0.651748     -0.687088
C      -1.787182      0.555456      0.168516
C      -0.349081      1.019099      0.437836
H       2.444245      0.439952      0.783223
H       2.046362      0.399199     -0.936654
H       2.411443     -1.099159     -0.075642
H       0.352783     -0.817517      1.300264
H      -0.137703     -0.658518     -1.714185
H      -0.193832     -2.134265     -0.782922
H      -2.202188      0.072538      1.077906
H      -2.520315      1.317108     -0.099431
H      -0.028504      1.709127     -0.350492
H      -0.228001      1.534810      1.391695
