16
Extracted from Q-Chem output
C       1.925771     -0.119221     -0.120377
C       0.492350     -0.250613      0.367573
C      -0.436039     -1.035676     -0.582386
C      -1.775410     -0.380808     -0.376952
C      -1.664362      0.774985      0.263250
C      -0.231339      1.092919      0.595783
H       2.536365      0.447907      0.585944
H       1.961081      0.399723     -1.082222
H       2.392570     -1.098117     -0.251790
H       0.495789     -0.781262      1.325295
H      -0.118003     -0.928930     -1.627495
H      -0.441898     -2.107058     -0.367064
H      -2.702614     -0.796351     -0.753040
H      -2.487010      1.442878      0.488758
H       0.150450      1.870414     -0.078274
H      -0.097701      1.469209      1.612997
