14
Extracted from Q-Chem output
O       2.758274     -0.872573      1.207549
C       2.025308     -0.402919      0.201198
C       1.206897      0.694273      0.310530
C       0.049496      1.062133      0.497128
C      -1.364930      1.029117      0.625586
C      -1.982569      0.310702     -0.512494
N      -1.467066     -0.429838      0.610288
H       2.419592     -0.525403      2.040285
H       2.394986     -0.740929     -0.759077
H       0.583829     -1.530156      0.038413
H      -1.915690      1.643698      1.327570
H      -1.467052      0.286909     -1.470302
H      -3.067919      0.353581     -0.573074
H      -0.208340     -1.237773      0.241826
