9
Extracted from Q-Chem output
O       2.513368     -0.100460     -0.049683
C       0.861790     -0.319424      0.131970
N       0.116938      0.557383      0.586637
N      -1.251919      0.448184      0.348273
C      -1.809182     -0.565868     -0.224713
N       1.526698     -1.285096     -0.330163
H       2.636909      0.297111     -0.923920
H      -1.709620      1.276469      0.711666
H      -2.886149     -0.337121     -0.257640
