11
Extracted from Q-Chem output
O      -2.146327      0.452317     -0.008198
C      -1.088548     -0.037224     -0.759812
N       0.053176      0.869307     -0.774531
C       1.020483      0.158199     -0.367104
O       2.287205      0.533769     -0.235389
C       0.577268     -1.215435     -0.016036
N      -0.669100     -1.325321     -0.206863
H      -2.228782      1.387594     -0.208887
H       2.356220      1.458571     -0.499468
H       1.207968     -2.012118      0.361791
H      -1.379316     -0.227798     -1.803640
