13
Extracted from Q-Chem output
C       1.361422      0.709111     -0.112863
C      -1.258227      0.734298      0.156987
C      -1.293631     -0.613944     -0.367914
O      -0.435542     -0.925707      0.712734
C       1.237225     -0.619738      0.283799
H       1.431792      0.964967     -1.163170
H       1.672499      1.461864      0.599880
H      -0.808415      1.573865     -0.341971
H      -1.785917      0.907781      1.083920
H      -2.238472     -1.153722     -0.296302
H      -0.840148     -0.744385     -1.351672
H       1.605626     -0.913603      1.261478
H       1.353469     -1.397750     -0.466898
