13
Extracted from Q-Chem output
O       2.031279      1.880848     -0.971761
C       1.147827      0.875522     -0.768242
C      -0.402921     -1.610325      0.273532
C      -0.881692     -0.220772      0.118833
N      -0.905551     -0.874992      1.429488
C       0.037243      0.930285     -0.045504
H       1.740061      2.663449     -0.496148
H       1.458698     -0.025491     -1.284694
H      -1.008138     -2.407954     -0.143052
H       0.661563     -1.811459      0.295542
H      -1.847305     -0.111470     -0.370185
H      -1.845263     -1.173432      1.659377
H      -0.240982      1.855493      0.454881
