13
Extracted from Q-Chem output
O       2.057800      1.666380     -0.484278
C       1.180801      0.640868     -0.500060
C      -0.294953     -1.714819     -0.221190
C      -0.981253     -0.479392      0.064448
N      -0.857664     -0.186186      1.440954
C      -0.118125      0.740634     -0.142634
H       1.695605      2.398126      0.021962
H       1.627845     -0.269017     -0.869270
H      -0.439295     -2.550198      0.448661
H       0.384302     -1.832684     -1.053083
H      -1.962880     -0.354083     -0.413627
H      -1.737891      0.219460      1.784338
H      -0.574344      1.710449      0.020939
