21
Extracted from Q-Chem output
C       1.251888     -1.413251      1.278793
C       1.021421     -0.413433     -0.742767
C       0.130383      0.641967     -0.834116
C       0.607816      2.056639     -0.621726
C      -1.278295      0.434663     -1.300138
C      -1.442278      0.288265      0.154573
C      -1.416237     -0.933991      0.855869
H       2.100509     -1.862098      0.769806
H       1.570503     -0.536865      1.841541
H       0.862865     -2.160544      1.976874
H       2.074431     -0.183966     -0.659567
H       0.786447     -1.361377     -1.209806
H       1.012834      2.466745     -1.551558
H       1.391790      2.105326      0.135750
H      -0.200430      2.718591     -0.304802
H      -1.741426      1.304766     -1.757065
H      -1.445499     -0.469502     -1.881117
H      -1.567835      1.204356      0.718581
H      -1.763680     -0.897558      1.884172
H      -0.155155     -1.187572      0.954203
H      -1.761129     -1.818184      0.319127
