17
Extracted from Q-Chem output
C       1.828900      0.221265     -0.012143
C       0.545170     -0.423650     -0.408748
C       0.219629     -1.856078     -0.667738
C      -0.556249     -1.065145      0.331782
C      -0.840483      0.122159     -0.532213
C      -1.200077      1.458947      0.082718
O      -0.701511      1.665689      1.389454
H       2.453026     -0.479579      0.547059
H       2.393890      0.542435     -0.890121
H       1.643807      1.091710      0.617982
H      -0.256656     -2.155313     -1.601452
H       0.923752     -2.582124     -0.271646
H      -1.141583      1.057180      1.984899
H      -0.695713     -1.232271      1.387553
H      -1.381954     -0.056256     -1.465551
H      -2.290864      1.574682      0.062253
H      -0.782635      2.264921     -0.525238
