11
Extracted from Q-Chem output
C      -1.354178      0.347579     -0.170950
C      -0.843154     -0.956324     -0.194256
O      -0.914503     -1.947899     -0.819554
O       0.400728     -1.030669      0.870647
C       1.325662     -0.159557      0.708319
N       1.181673      0.900925     -0.013272
H      -1.450757      0.786270      0.817120
H       0.018425      0.931370     -0.379938
H      -2.201707      0.492855     -0.830880
H       2.260055     -0.371782      1.231031
H       1.965169      1.525122     -0.110488
