11
Extracted from Q-Chem output
C      -1.020247     -1.019841      0.258492
C       0.259149     -0.331157      0.551323
N       0.439679      1.105059      0.376867
O      -0.372757      1.578023     -0.702142
C       1.581001     -0.798605      0.689648
C       1.554071      0.330115     -0.134849
H      -1.331436     -0.832726     -0.768489
H      -0.900212     -2.088564      0.419404
H      -1.795995     -0.628340      0.919876
H      -0.634460      2.452083     -0.402435
H       1.972078      0.545602     -1.112083
