11
Extracted from Q-Chem output
O       0.912881      0.728281     -0.414228
C      -0.372413      0.221445     -0.415509
C      -0.723309     -0.649848      0.498768
C      -0.592759     -1.504234      1.633206
O      -1.817180     -1.355685      0.851206
C       1.249191      1.579983     -1.397942
O       2.330324      2.064314     -1.474772
H      -1.055603      0.569357     -1.180164
H      -0.107912     -2.468946      1.530986
H      -0.644183     -1.085178      2.632164
H       0.426694      1.773567     -2.108136
