14
Extracted from Q-Chem output
C       1.121874     -0.359966     -0.489411
C      -0.309746     -0.936554     -0.482773
C      -0.934900      0.230086     -1.228242
C      -0.689629     -0.702531      0.976677
N      -0.363916      0.737568      1.094371
C       0.720638      0.950850      0.175708
C      -0.712086      1.269879     -0.255197
H       1.527399     -0.221136     -1.490106
H       1.824014     -0.946657      0.106408
H      -0.443536     -1.926776     -0.905664
H      -1.748161     -0.852783      1.191114
H      -0.093170     -1.279223      1.686397
H       1.405704      1.762343      0.380981
H      -1.060478      2.289090     -0.323271
