14
Extracted from Q-Chem output
C       1.194941     -0.295186     -0.583365
C      -0.131115     -1.007438     -0.462775
C      -1.291490     -0.064667     -0.692170
C      -0.668123     -0.657994      0.906147
N      -0.178559      0.710558      1.179489
C       0.796018      0.979574      0.103874
C      -0.647637      1.219789     -0.122088
H       1.482592     -0.125569     -1.622410
H       2.005097     -0.818640     -0.071857
H      -0.237190     -2.031670     -0.799851
H      -1.829868     -0.478806      0.587260
H      -0.748105     -1.400551      1.695339
H       1.484883      1.788821      0.297703
H      -1.111791      2.193674     -0.189166
