12
Extracted from Q-Chem output
O      -1.742122      0.666598     -0.390998
C      -0.976483     -0.799915      0.339570
C       0.469337     -0.597198      0.038546
O       0.704238     -0.541366     -1.342618
C       1.051527      0.631908      0.710324
O       1.617430      1.494235      0.094307
H      -1.141881      0.853514     -1.128705
H      -2.004648     -0.344591     -0.560068
H      -1.188318     -0.599897      1.394126
H       0.958036     -1.470251      0.511658
H       1.393557      0.122066     -1.479657
H       0.905575      0.697031      1.804899
