12
Extracted from Q-Chem output
N      -2.960334      0.663662     -1.036083
C      -2.131354      0.719699     -0.244298
C      -1.036109      0.774861      0.742314
C      -0.016268     -0.305255      0.583411
C       1.883710     -0.997675     -0.757343
N       0.952383     -0.171991     -0.317161
H      -0.585494      1.771127      0.673725
H      -1.485080      0.720867      1.735754
H      -0.151905     -1.276545      1.033448
H       1.911389     -2.007779     -0.382177
H       2.602759     -0.624440     -1.464766
H       0.991004      0.746930     -0.744586
