12
Extracted from Q-Chem output
N      -2.575065      0.129127     -1.227196
C      -1.900769      0.371210     -0.330903
C      -1.003367      0.664229      0.792886
C       0.303177     -0.070740      0.679528
C       1.319914     -0.958177     -0.870127
N       1.197106      0.251851     -0.286130
H      -0.834080      1.748253      0.802065
H      -1.517002      0.403783      1.719137
H       0.572228     -0.813016      1.413421
H       0.442014     -1.407899     -1.307024
H       2.294034     -1.417939     -1.022173
H       1.674999      1.123044     -0.469063
