12
Extracted from Q-Chem output
C      -1.540779     -0.233567     -0.072212
C      -0.059095     -0.011668      0.007123
C       0.508031      1.088785     -0.514775
O       1.801441      1.444137     -0.534026
C       0.736704     -1.039501      0.671637
O       0.280626     -2.048032      1.153089
H      -1.766541     -1.155700     -0.610406
H      -1.970897     -0.336114      0.925515
H      -2.035958      0.594874     -0.579517
H       2.349486      0.783379     -0.101837
H      -0.097411      1.842620     -1.007422
H       1.835774     -0.870891      0.732920
