12
Extracted from Q-Chem output
O      -1.221880      0.404071     -1.600607
C       0.014130      0.874718     -0.065970
C      -0.197184      0.092383      1.109674
C      -0.169088     -1.182226      0.251083
O       1.275714     -1.167722      0.160779
C       1.217007      0.149980      0.525017
H      -0.724061      0.462667     -2.424263
H      -0.116773      1.926678     -0.271206
H      -0.646910      0.345703      2.061681
H      -0.622156     -2.096906      0.617799
H      -0.930845     -0.488470     -1.161988
H       2.115753      0.696906      0.779583
