15
Extracted from Q-Chem output
C      -2.287637      0.121987      0.391928
C      -1.311854      0.108583     -0.774356
N       0.050771     -0.018175     -0.303938
C       2.220160     -1.541958      0.693495
C       2.475897     -0.289450      0.363380
N       2.247725      0.799658     -0.240081
C       0.898414      0.858253     -0.627208
H      -3.316841      0.177402      0.032208
H      -2.179412     -0.783480      0.990760
H      -2.104105      0.980481      1.040512
H      -1.444026      1.009790     -1.389949
H      -1.524476     -0.752318     -1.414709
H       2.047396     -1.815300      1.733721
H       3.537115     -0.630826      0.748396
H       0.658228      1.731869     -1.238112
