15
Extracted from Q-Chem output
C      -0.710342      1.600785     -0.196040
C      -1.154500      0.313028      0.401176
C      -0.458069     -1.398104     -0.325298
C       0.850809     -0.462624      0.613501
C       1.805501     -0.211035     -0.444208
N       2.548754     -0.006919     -1.295324
H       0.139445      2.128867      0.262646
H      -1.594952      2.238757     -0.072296
H      -0.531330      1.526620     -1.270854
H      -1.123818      0.303357      1.494854
H       0.362817     -2.105610     -0.516988
H      -0.803171     -1.073394     -1.299610
H      -1.225471     -1.940021      0.212964
H       1.150291     -1.310575      1.223505
H       0.847005      0.409064      1.256545
