13
Extracted from Q-Chem output
O       2.946078      0.456315     -0.923236
C       2.225069     -0.027055      0.186579
C       0.798963      0.224480      0.169147
C      -0.434070      0.126319      0.343051
C      -1.792599      0.320197      0.686097
C      -2.826815     -0.358157     -0.054123
O      -4.014011     -0.206675      0.126167
H       2.642678      1.345163     -1.121719
H       2.604052      0.390669      1.131368
H       2.415106     -1.104647      0.228922
H      -2.054253      0.938434      1.537115
H      -0.767414     -0.972200      0.496603
H      -2.455278     -1.034687     -0.858106
