12
Extracted from Q-Chem output
C      -1.672529     -0.393582     -0.091177
C      -0.209085     -0.084560     -0.007246
C       0.850301     -0.901189     -0.558352
N       1.918307     -0.083248     -0.349928
N       1.674672      1.136343      0.160665
C       0.394937      1.160845      0.389492
H      -2.114399      0.154385     -0.924524
H      -1.821938     -1.456479     -0.279633
H      -2.205039     -0.112654      0.818333
H       0.329205     -1.082385      0.624908
H       2.871996     -0.317429     -0.559643
H      -0.073341      2.037378      0.811989
