16
Extracted from Q-Chem output
C       2.079058     -1.051479     -0.507518
O       1.414149      0.124878     -0.044953
C       0.686781      1.060791     -1.082751
C      -1.521349      0.479356      1.327377
C      -2.279509      0.093098      0.108729
O      -0.511201     -0.057121      1.728649
H       1.391358     -1.673932     -1.083438
H       2.898866     -0.723239     -1.141664
H       2.461261     -1.598562      0.355121
H       0.529572      0.362735     -1.922591
H       1.526133      1.703355     -1.376876
H      -1.944354      1.315839      1.912952
H      -3.339228     -0.016780      0.353713
H      -1.884899     -0.821856     -0.328597
H      -2.163314      0.905852     -0.611936
H       0.732504     -0.088896      0.633987
