14
smiles: [C-:5]#[O+:6].[H:11][H:14].[O:1]([C:2]([C:3](=[C:4]([H:12])[H:13])[H:10])([H:8])[H:9])[H:7]
O        2.60335900       0.00981300       0.25492600
C        1.25103000       0.31585800      -0.04150200
C        0.37467600      -0.60047200       0.74828200
C       -0.63002600      -0.19946400       1.50903900
C       -2.42441100       1.41511600      -1.13400600
O       -1.56951700       1.58335600      -1.84318300
H        3.16725200       0.48724600      -0.35476400
H        1.05243500       0.16680300      -1.11198500
H        1.01533800       1.35944600       0.20200900
H        0.60469300      -1.65814900       0.65255400
H       -1.33062900      -1.67917300      -1.38336400
H       -1.25543000      -0.90503900       2.04189700
H       -0.86486300       0.85324700       1.62876400
H       -1.59344300      -1.96958200      -2.01659900
