13
Extracted from Q-Chem output
N       1.478164     -1.573210      1.059030
C       0.619355     -0.760295      0.637890
C       0.670179      0.724148      0.391657
C       0.292867      0.895381     -1.085743
C      -1.049687      0.368266     -0.626620
C      -0.844972     -0.687624      0.410493
N      -0.836535      0.772879      0.772986
H       1.389359      1.356511      0.901095
H       0.869460      0.345882     -1.831054
H       0.215424      1.947155     -1.360165
H      -2.015020      0.483948     -1.103346
H       1.071208     -2.495653      1.202797
H      -1.631304     -1.357696      0.730096
