17
Extracted from Q-Chem output
C      -2.348122     -0.641186      0.251614
C      -0.864216      0.658838     -0.585936
O      -0.879551      1.656143      0.309333
C       0.282354     -0.272412     -0.423122
C       1.644486      0.286922     -0.875724
C       2.105903     -0.035541      0.546141
O       0.768784     -0.378381      0.951920
H      -3.230016     -0.063765      0.521371
H      -2.595618     -1.561303     -0.276645
H      -1.722840     -0.835001      1.116457
H      -1.948271      0.121200     -0.771115
H      -0.359179      1.382548      1.085059
H       0.045234     -1.257190     -0.829613
H       2.130922     -0.250708     -1.686044
H       1.612508      1.349939     -1.107710
H       2.509095      0.793136      1.132365
H       2.773919     -0.896758      0.630375
