15
Extracted from Q-Chem output
C      -1.928160      0.572279      0.129152
C      -1.192114     -0.525609     -0.629866
N       0.204956     -0.237336     -0.916719
C       1.104683     -0.387498      0.167645
O       1.277861     -1.532773      0.733428
C       2.472913      0.154353      0.160210
H      -2.970002      0.294949      0.301246
H      -1.919994      1.511890     -0.429322
H      -1.469373      0.753340      1.104269
H      -1.211552     -1.460262     -0.067242
H      -1.691533     -0.726872     -1.580347
H       0.349672      0.615843     -1.437825
H       2.688146      1.150774      0.534303
H       3.277759     -0.571921      0.153167
H       0.906524      0.379250      1.031534
