12
smiles: [C:3](=[O:4])([H:10])[H:11].[N:1]([C:2](=[C:5]=[N:6][H:12])[H:9])([H:7])[H:8]
N        2.81011700       0.02267300       0.89682400
C        1.95962200       0.69004500      -0.02386500
C       -2.94390500      -1.05575800      -0.74580400
O       -3.75021600      -0.42080000      -0.13211400
C        0.65159800       0.62498700      -0.02444200
N       -0.55210000       0.40962400      -0.12260100
H        3.32767600       0.66816000       1.47712600
H        2.30445400      -0.61931000       1.48846400
H        2.43864400       1.24530200      -0.82090800
H       -2.68288600      -0.81378800      -1.79391800
H       -2.41648700      -1.92016200      -0.29873800
H       -1.13695900       1.10388300       0.33939300
