17
smiles: [C:1]([O:3][H:12])([H:8])([H:9])[H:10].[C:2]([C@@:4]1([H:13])[C:5]([H:14])([H:15])[C:6]([H:16])([H:17])[O:7]1)[H:11]
C       -2.45846300       0.23645000       0.85291700
C       -0.38888500      -0.86400000      -1.32116200
O       -1.16713400       0.40552300       0.30820500
C        0.66183200      -0.44770700      -0.63961000
C        1.63160100       0.70494600      -0.67614600
C        2.24471100      -0.00096100       0.54058600
O        1.24566100      -1.04283800       0.45408300
H       -3.16584500       0.64120200       0.12996800
H       -2.70331400      -0.81905700       1.01783400
H       -2.58382300       0.77908100       1.79680700
H       -0.74213400      -0.29231000      -2.16706200
H       -0.52442700       0.05959200       0.92792900
H       -0.90541200      -1.77336100      -1.04553700
H        2.26068300       0.74968100      -1.56322700
H        1.19341100       1.68285500      -0.48538600
H        2.17743400       0.52983600       1.49102000
H        3.24824800      -0.40699600       0.40698100
