17
Extracted from Q-Chem output
C      -2.464874     -0.089292      0.678366
C      -0.930306     -0.435388     -0.642611
O      -1.204504      0.953917      0.018810
C       0.513896     -0.689211     -0.476354
C       1.594799      0.358378     -0.859250
C       2.102893      0.150284      0.562342
O       0.913374     -0.572631      0.928031
H      -2.881945      0.769917      1.218732
H      -3.163326     -0.460603     -0.056723
H      -2.120206     -0.867592      1.343157
H      -1.183779     -0.288371     -1.695334
H      -0.579061      0.949716      0.762114
H       0.746341     -1.684973     -0.871113
H       2.259224      0.088678     -1.677317
H       1.177767      1.350691     -1.034956
H       2.247072      1.034889      1.187484
H       2.989673     -0.487612      0.632309
