13
Extracted from Q-Chem output
N      -1.750075     -0.152305      0.200728
C      -0.621618      0.553372     -0.384833
C       0.678027      0.043031      0.251998
N       0.824612     -1.371096     -0.032409
C       1.822337      0.794869     -0.285894
N       2.707770      1.403014     -0.687655
H      -2.067468      0.288556      1.052588
H      -2.531661     -0.195117     -0.435276
H      -0.670740      1.642584     -0.275908
H      -0.577480      0.325576     -1.450995
H       0.638945      0.276529      1.327918
H      -0.040004     -1.828427      0.231727
H       1.587357     -1.780587      0.488010
