14
smiles: [C:1](=[C:2]([C:4]([C:5]#[C:6][H:14])([H:12])[H:13])[H:10])([H:7])[H:9].[O:3]([H:8])[H:11]
C       -2.06559200       0.20758900       0.08876100
C       -0.95109000       0.72757300       0.57366600
O        0.20799000      -2.12414600      -1.11804700
C        0.23380200       1.12616200      -0.26566600
C        1.48043500       0.51731100       0.19830200
C        2.49320900       0.01784400       0.59555500
H       -2.19135100       0.01775100      -0.97214100
H        1.03037900      -1.72770000      -0.82785000
H       -2.89443400      -0.04961600       0.73640900
H       -0.84944900       0.89659500       1.64189900
H       -0.42906500      -1.91945900      -0.43252400
H        0.06084600       0.85667200      -1.31027700
H        0.35194800       2.21451400      -0.23520500
H        3.39432100      -0.42571900       0.94728300
