17
smiles: [C:1]([C:2]([C:5]([C:3](=[O:4])[H:13])([C:6](=[O:7])[H:17])[H:16])([H:11])[H:12])([H:8])([H:9])[H:10].[H:14][H:15]
C       -1.92099400      -0.28419700      -1.04616400
C       -0.40063200      -0.20023200      -0.99968200
C       -0.02279000       0.01968700       1.52139200
O       -0.45209400      -1.07914400       1.72450300
C        0.11544900       0.65002900       0.14845600
C        1.55230700       1.11549300      -0.01646300
O        2.21587900       0.92896100      -0.99465000
H       -2.24588600      -0.88713300      -1.89497700
H       -2.32412400      -0.74038400      -0.14144100
H       -2.36843500       0.70729600      -1.15704000
H        0.02770400      -1.20094500      -0.91128400
H       -0.01386300       0.21814700      -1.93030800
H        0.31392200       0.65766500       2.36602000
H        2.17508100      -2.08569900       0.75915800
H        2.64338300      -1.73324200       0.30002700
H       -0.45342000       1.59297000       0.22441500
H        1.96871200       1.67253400       0.84919000
