14
Extracted from Q-Chem output
N       1.741589     -1.800645     -0.092583
C       0.994053     -0.808845     -0.210609
O       1.399658      0.425403     -0.679963
C       0.384001      1.312722     -0.601422
C      -0.846089      0.756024     -0.214981
C      -1.336224     -0.449603     -0.964416
C      -0.462947     -0.779835      0.125113
H       2.677550     -1.620702     -0.445886
H      -0.086211      1.014416     -2.472589
H       0.704756      2.332560     -0.431059
H      -1.555780      1.366909      0.325423
H      -0.525437      0.321324     -2.403790
H      -2.375177     -0.740003     -0.830945
H      -0.749457     -1.338529      1.011855
