17
Extracted from Q-Chem output
C       2.078293      0.202273     -0.025004
C       1.060249     -0.547949     -0.865899
C      -0.384214     -0.331090     -0.479093
C      -1.403349     -1.049333     -1.324348
O      -1.218464      0.726575      2.808214
C      -0.734253      0.418742      0.529992
C      -1.079749      1.187931      1.522269
H       3.093736     -0.023404     -0.354818
H       1.992830     -0.069414      1.028544
H       1.928519      1.280952     -0.098425
H       1.257090     -1.625523     -0.821126
H       1.170911     -0.277143     -1.922474
H      -2.417635     -0.844179     -0.987116
H      -1.313808     -0.745326     -2.371126
H      -1.235100     -2.129276     -1.287182
H      -1.487358      1.453865      3.369586
H      -1.273284      2.246317      1.369545
