13
Extracted from Q-Chem output
O       1.161938      2.522052      0.099446
C       0.939332      1.324767      0.327310
C       1.861632      0.374324      0.818323
O      -0.925630     -2.183289     -1.633631
C      -1.319806     -1.161031     -1.161110
C      -0.846510     -0.646775      0.200728
C      -0.353661      0.737533      0.094081
H       1.619364     -0.667918      0.955746
H       2.875083      0.687900      1.042592
H      -2.062174     -0.526191     -1.682856
H      -0.141356     -1.363719      0.609548
H      -1.747715     -0.634806      0.831875
H      -1.082613      1.460947     -0.276076
