17
Extracted from Q-Chem output
C      -2.312485     -0.342662      0.102103
C      -1.074104     -0.149045     -0.707455
C       0.162161      1.195158      0.431335
C       1.072673      0.052184      0.088826
C       2.401000      0.212648     -0.486402
O       2.219934     -0.208681      0.862289
C       0.090602     -1.033693     -0.276599
H      -2.163176     -0.563598      1.169097
H      -3.033285      0.466931     -0.014552
H      -2.767264     -1.239160     -0.339539
H      -0.624423      1.099651     -0.537596
H       0.539465      2.207226      0.280792
H      -0.320892      1.089128      1.400146
H       2.781221     -0.547463     -1.162782
H       2.825245      1.205823     -0.607508
H      -0.125506     -1.630752      0.620591
H       0.428912     -1.704533     -1.067789
