18
smiles: [C:1]([C:2]([C:3]([C:4]([C:5](=[O:6])[H:16])([H:15])[H:17])([H:12])[H:13])([H:10])[H:11])([H:7])([H:8])[H:9].[H:14][H:18]
C       -2.42670200       0.36816100      -0.21018400
C       -0.98479300       0.14405600       0.22323400
C       -0.09772200      -0.35111100      -0.91410100
C        1.34860000      -0.59856600      -0.48611500
C        2.04910800       0.67349000      -0.09660800
O        2.68927700       0.83221900       0.90572700
H       -2.86799900      -0.55351300      -0.59758700
H       -3.04509800       0.70811800       0.62191300
H       -2.48993300       1.12057100      -1.00017300
H       -0.95173200      -0.58026800       1.04342000
H       -0.57527400       1.07466200       0.63092200
H       -0.51051300      -1.27779700      -1.32257900
H       -0.11588700       0.37432200      -1.73595000
H        0.99505100      -0.81547000       3.37702800
H        1.41359100      -1.30232400       0.34600500
H        1.93976300       1.50582600      -0.82824100
H        1.91105500      -1.02131600      -1.32693800
H        1.43290400      -0.40796300       2.93363500
