16
Extracted from Q-Chem output
C       2.698361      0.552715      0.169440
C       1.955742     -0.722191      0.018226
C       0.894894     -0.915993     -0.696846
C      -0.467945     -0.945871     -0.932240
N      -1.423866     -0.683488      0.038428
C      -2.494749      0.251417     -0.228492
C      -1.416233      0.571086      0.748743
H       3.596721      0.497603     -0.452429
H       3.058498      0.668604      1.193299
H       2.144587      1.454511     -0.128570
H      -0.860198     -1.331125     -1.868381
H       0.576519     -2.056260     -0.932695
H      -3.477075     -0.044533      0.119786
H      -2.475746      0.782699     -1.174953
H      -0.676131      1.307243      0.451524
H      -1.614144      0.509417      1.811535
