17
Extracted from Q-Chem output
C      -1.830811      0.549581      0.043231
C      -1.293904     -0.858506      0.095946
C       0.352232     -0.947474     -0.757185
C       1.168146      0.324536     -0.968676
C       1.376612      0.853677      0.426423
C       0.791495      0.090646      1.340223
C       0.040804     -1.055912      0.735217
H      -2.505181      0.683481     -0.803187
H      -2.450092      0.625484      0.943364
H      -1.118534      1.382239      0.076912
H      -0.756702     -0.987782     -1.213279
H       0.704890     -1.870026     -1.209115
H       0.652553      1.050694     -1.605475
H       2.113923      0.093521     -1.465202
H       1.914164      1.772786      0.626612
H       0.803435      0.278917      2.406309
H       0.192864     -2.026444      1.201103
