14
Extracted from Q-Chem output
N       1.804877     -1.933200     -0.006667
C       1.052327     -0.964885     -0.228027
O       1.544032      0.273684     -0.739327
C       0.583844      1.182190     -0.660974
C      -0.675080      0.672766     -0.295237
C      -1.255755     -0.441578     -1.102823
C      -0.384696     -0.802998      0.066140
H       2.773905     -1.733979     -0.240027
H      -1.021243      2.447945     -1.311805
H       0.878510      2.217128     -0.696884
H      -1.318936      1.689139     -0.322909
H      -0.890951     -0.601914     -2.111128
H      -2.313448     -0.626379     -0.966142
H      -0.790172     -1.344431      0.907555
