15
smiles: [C:1]([N:2](/[C:3](=[C:4](\[O:5][H:15])[H:14])[H:12])[H:11])([H:8])([H:9])[H:10].[C:6](#[N:7])[H:13]
C       -1.63964900       1.22484700       0.86494300
N       -0.71384000       0.20970000       0.38205700
C        0.20733100       0.68252000      -0.60115600
C        1.50844400       0.50894000      -0.38582400
O        2.00210400      -0.09509400       0.71046700
C        0.60867900      -2.72470700      -0.57130700
N       -0.41406400      -3.14771200      -0.85946300
H       -2.22144200       1.69919400       0.06239200
H       -2.33383900       0.77814600       1.57816800
H       -1.08047400       2.00693600       1.38042900
H       -1.22670300      -0.58986800       0.03481700
H       -0.14849800       1.19201100      -1.49322200
H        1.56370500      -2.32886700      -0.30158300
H        2.27241800       0.83699700      -1.07895500
H        1.22438900      -0.31874300       1.24673800
