15
Extracted from Q-Chem output
C      -1.767098      0.689098      0.728125
N      -0.396545      0.207760      0.817060
C       0.216754     -0.111427     -0.458000
C       1.726059     -0.285422     -0.260762
O       2.277808      0.887137      0.266808
C      -0.368560     -1.305891     -1.102669
N      -0.831538     -2.251067     -1.560166
H      -2.446900     -0.012594      0.227862
H      -2.143232      0.880966      1.732448
H      -1.781992      1.632734      0.179963
H      -0.348180     -0.599987      1.426038
H       0.059461      0.737421     -1.129787
H       2.208761     -0.484711     -1.218111
H       1.903656     -1.151501      0.393085
H       1.691548      1.167484      0.979199
