16
Extracted from Q-Chem output
C      -1.682376     -1.016524     -0.347250
O      -0.848483     -0.026159      0.233222
C      -0.891730      1.529402     -0.540295
C       0.630221      1.470885     -0.316234
C       0.565455     -0.035757     -0.173140
C       1.423840     -0.735464      0.844930
H      -1.350511     -2.003994     -0.018385
H      -1.654561     -0.926613     -1.434869
H      -2.693472     -0.829222      0.007769
H      -1.365495      2.088593      0.278778
H       1.026500      1.937527      0.594117
H       1.217209      1.807705     -1.171030
H       0.612429     -0.524431     -1.149879
H       1.159532     -1.791143      0.936952
H       1.325097     -0.260741      1.821611
H       2.469355     -0.675447      0.535972
