15
smiles: [C:1]([C:2]1=[N+:6]([C-:7]([H:14])[H:15])[C@@:3]1([C:4]#[N:5])[H:12])([H:8])([H:9])[H:10].[H:11][H:13]
C       -1.86962700       0.10194200       0.04003500
C       -0.49846900      -0.02969200      -0.51024600
C        0.58610200       0.92471300      -0.85559300
C        0.64053900       2.27146600      -0.29205400
N        0.63147200       3.34593900       0.11118700
N        0.64941100      -0.14157600       0.12635300
C        1.44337900      -0.54563000       1.06578900
H       -1.92809400       0.88110700       0.81219600
H       -2.57379600       0.34853200      -0.75286400
H       -2.18916100      -0.84231800       0.48218200
H        0.02840100      -2.59548900      -0.85326900
H        1.15023000       0.81184200      -1.77724500
H        0.34821900      -3.19962500      -0.55811000
H        1.07528700      -1.26151200       1.78494600
H        2.46343500      -0.19678500       1.06512600
