12
Extracted from Q-Chem output
C      -1.613140      0.504005      0.558837
C      -0.786431     -0.443964     -0.256277
O      -0.409124      0.009613     -1.590420
C       0.562067     -0.158362     -0.648676
C       1.862412     -0.008335     -0.538554
O       2.596534     -0.260610      0.588302
H      -1.590472      0.211862      1.610953
H      -1.227678      1.519133      0.469276
H      -2.652313      0.486600      0.225963
H      -1.102610     -1.485287     -0.249276
H       2.013657     -0.569564      1.285216
H       2.465120      0.336266     -1.367109
