12
Extracted from Q-Chem output
C      -1.417733      0.594475      0.364446
C      -0.725539     -0.627016     -0.162346
O      -0.288929     -0.588644     -1.502192
C       0.711312     -0.694293     -0.509996
C       1.653079      0.324711     -0.210035
O       2.467995     -0.175588      0.624590
H      -1.359513      0.628031      1.454271
H      -0.967819      1.501429     -0.040321
H      -2.473367      0.577971      0.084963
H      -1.166015     -1.577696      0.132230
H       1.834519     -1.192093      0.406522
H       1.805650      1.336874     -0.582545
