15
smiles: [C:1](=[C:2]([H:10])[H:11])([H:7])[H:9].[N:3](\[C:4]([H:12])([H:13])[H:14])=[C:5](/[O:6][H:8])[H:15]
C        2.69224800       1.06875200      -0.66859000
C        1.94275700       0.08837700      -1.14245800
N       -1.24430700      -0.38002300       0.12091100
C       -2.51664100      -1.02617700      -0.10372600
C       -1.09946200       0.29660100       1.16502500
O        0.04222700       0.93503600       1.46208800
H        3.48857800       0.88266900       0.04303900
H        0.65688600       0.75775900       0.73890200
H        2.53971500       2.09863700      -0.97080700
H        2.09524900      -0.94154100      -0.84030600
H        1.14641600       0.27433600      -1.85411400
H       -2.36581100      -2.10237000      -0.20809000
H       -2.94616300      -0.66694800      -1.04091800
H       -3.24420700      -0.85274000       0.69997300
H       -1.85374900       0.45108600       1.94110000
