15
Extracted from Q-Chem output
C       1.849365      0.851237     -0.320210
C       0.996716     -0.115572     -0.855086
N      -0.570055     -0.404578      0.257600
C      -1.750682     -0.957315     -0.353256
C      -0.686508      0.400580      1.253141
O       0.318818      0.993352      1.786982
H       2.808070      0.524084      0.066708
H       1.110314      0.987121      0.976458
H       1.813524      1.853053     -0.732354
H       1.288846     -1.158306     -0.831205
H       0.359620      0.134488     -1.697899
H      -1.675005     -2.045135     -0.411717
H      -1.874935     -0.576557     -1.371324
H      -2.653908     -0.703001      0.212894
H      -1.677664      0.626547      1.677586
