13
smiles: [C:1](=[C:2]=[N:3][O:4][H:10])([H:7])[H:9].[C:5](=[O:6])([H:11])[H:12].[H:8][H:13]
C       -1.59005300       1.26754000       0.43474600
C       -1.41152700       0.10711900      -0.12392300
N       -1.27078100      -0.92869300      -0.76584200
O       -0.91125000      -2.04462600      -0.01236000
C        1.74232700      -0.53525600       0.74342500
O        1.78015900       0.64573800       0.92707700
H       -2.56512100       1.55362600       0.80614000
H        1.07041000       1.37985900      -2.19521600
H       -0.76275100       1.95580600       0.54565900
H       -0.85093600      -2.73368300      -0.67863900
H        1.84429600      -0.97478800      -0.26749800
H        1.60160400      -1.25362400       1.57389100
H        1.39469900       1.40388300      -1.52538400
