12
Extracted from Q-Chem output
O       1.518636     -0.355377      1.403999
C       1.683640      0.120405      0.213382
C       0.989010     -0.390066     -0.854805
C      -0.761760     -0.330832      0.464323
C      -1.761989      0.667582      0.063403
O      -1.861447     -0.770331     -0.093908
H       2.261601      1.043756      0.128953
H       0.734783     -1.440692     -0.887857
H       1.029498      0.126157     -1.806647
H       0.420545     -0.600642      1.316961
H      -2.433203      1.083044      0.805694
H      -1.643896      1.210279     -0.865945
