19
smiles: [C:1]([H:8])([H:9])([H:10])[H:14].[C:2]([C:3](=[O:4])[H:13])([C@@:5]([C:6]([H:16])([H:17])[H:18])([O:7][H:19])[H:15])([H:11])[H:12]
C        2.15288600      -0.81192100       2.13494700
C        0.07905700       0.97918300      -0.53538900
C        0.94302900      -0.10610600      -1.11101900
O        0.66092300      -1.27651900      -1.13792700
C       -1.34130100       0.55840600      -0.15274100
C       -2.19924000       0.21034500      -1.36270000
O       -1.31867900      -0.48603600       0.79848700
H        2.48654100      -1.15507200       3.11309200
H        2.34852900      -1.58491700       1.39332500
H        2.69261600       0.09441000       1.86462200
H        0.61003000       1.34621600       0.35180400
H        0.07152000       1.81606100      -1.24208900
H        1.91850600       0.23387000      -1.51534000
H        1.08478600      -0.60252300       2.16830500
H       -1.80287500       1.40339300       0.36542300
H       -1.78111600      -0.63541100      -1.91104900
H       -3.20280200      -0.05851600      -1.03261400
H       -2.27836500       1.06036000      -2.04450200
H       -0.89400400      -1.24071300       0.37636600
