19
Extracted from Q-Chem output
C       2.264290     -0.411091      1.530901
C       0.531214      0.712493      0.770861
C       0.202038     -0.117004     -0.385522
O       0.268954     -1.411778     -0.131795
C      -1.375325      0.343891     -0.482924
C      -1.785681      0.168845     -1.936204
O      -2.061955     -0.489729      0.384630
H       2.286413     -0.994365      2.452619
H       3.164618     -0.555955      0.934726
H       2.275255      0.636164      1.853472
H      -0.018404      0.496141      1.681493
H       0.890598      1.733416      0.654837
H       0.702916      0.242269     -1.300643
H       1.440803     -0.970194      0.914691
H      -1.558060      1.380798     -0.175527
H      -1.548959     -0.845562     -2.260910
H      -2.861114      0.329176     -2.025982
H      -1.268118      0.879901     -2.583057
H      -1.510444     -1.302109      0.391113
