14
Extracted from Q-Chem output
O      -0.417797      1.108349      0.623943
C      -1.328443      0.323013     -0.158048
C      -0.797947     -1.109608      0.005914
C       0.713816     -0.969457      0.319564
C       1.001285      0.487338      0.201628
C       1.616600      1.513471     -0.291911
H       0.118056      1.944355      0.130507
H      -1.271595      0.655842     -1.198003
H      -2.339026      0.461845      0.222401
H      -0.980528     -1.687351     -0.899950
H      -1.308203     -1.612773      0.826953
H       0.928757     -1.329704      1.326727
H       1.339465     -1.525986     -0.376797
H       2.614148      1.466921     -0.711539
