13
Extracted from Q-Chem output
C      -1.018527      1.155601      0.298406
C      -0.679131     -0.254424     -0.026588
O      -1.720486     -1.123573     -0.250341
C       0.547717     -0.773791     -0.149539
O       0.751339     -2.090442     -0.450229
C       1.737656     -0.006219      0.010315
C       2.747059      0.627147      0.142649
H      -1.621815      1.209420      1.210787
H      -1.590221      1.613445     -0.514202
H      -0.115730      1.741186      0.455728
H      -2.542386     -0.737312      0.054246
H      -0.113938     -2.507628     -0.518794
H       3.645738      1.185501      0.256173
