13
Extracted from Q-Chem output
C      -1.062435      1.173291      0.184086
C      -0.650103     -0.252741      0.245007
O      -1.740381     -1.223376     -0.341247
C       0.576068     -0.811774     -0.196807
O       0.596124     -1.906856     -0.782354
C       1.795271     -0.082907      0.091647
C       2.799973      0.527408      0.318344
H      -1.932108      1.378477      0.807410
H      -1.283878      1.486201     -0.841386
H      -0.234877      1.780146      0.555100
H      -1.439363     -1.221560      0.740194
H      -1.099124     -1.866379     -0.776175
H       3.701411      1.059450      0.514791
