12
Extracted from Q-Chem output
C       1.614357      0.201500     -0.685039
C       0.304899      0.333219      0.002139
O      -0.542306      1.186001     -0.460167
C      -0.242440     -0.532661      0.952133
C      -1.768710      0.026357     -0.216501
O      -2.068219     -0.609003     -1.166696
H       1.455675     -0.415940     -1.575204
H       2.368198     -0.265304     -0.055515
H       1.942855      1.182284     -1.028644
H       0.217420     -1.498732      1.127620
H      -0.734437     -0.096756      1.810086
H      -2.408214      0.500997      0.524537
