17
Extracted from Q-Chem output
C      -1.395009     -0.612948      0.947684
C      -1.864514      0.221464     -0.210456
C      -0.402127      0.006684      0.010596
C       0.507170      1.132206      0.505005
C       1.880365      0.632183      0.150075
C       1.838906     -0.450842     -0.613541
C       0.429521     -0.881296     -0.915561
H      -1.544875     -1.684610      0.894880
H      -1.483300     -0.195271      1.943326
H      -2.272178      1.202371      0.002250
H      -2.333258     -0.285130     -1.045442
H       0.298655      2.080316     -0.004698
H       0.390028      1.317640      1.576570
H       2.787513      1.131051      0.468924
H       2.707444     -0.961727     -1.011048
H       0.191584     -0.706146     -1.971508
H       0.264077     -1.945946     -0.727057
