13
Extracted from Q-Chem output
O       1.901051      0.715416      0.244119
C       0.809142      0.279423     -0.514492
C       0.158197     -1.059532     -0.247176
C      -1.162724     -0.601893     -0.269426
N      -1.328093      0.511960      0.607007
C      -0.501708      1.062723     -0.286321
H       1.730765      0.502814      1.166283
H       1.112229      0.352818     -1.558195
H       0.144500     -0.787015      1.391138
H       0.524980     -1.987883     -0.665153
H      -2.059968     -1.064950     -0.656975
H      -0.412374     -0.101104      1.643525
H      -0.639252      2.087166     -0.636844
