14
Extracted from Q-Chem output
O       1.835824      1.962495     -0.753070
C       1.045127      0.961050     -1.225258
C       0.227044      0.211802     -0.508310
C      -0.815215     -0.840544     -0.815238
N      -1.288984     -0.811179      0.608729
C      -0.194241      0.175699      0.920055
C      -0.149802     -1.211350      1.423820
H       1.150266      0.840964     -2.296535
H      -1.609255     -0.500939     -1.479912
H      -0.470360     -1.827072     -1.135579
H       1.755356      2.010463      0.202793
H      -0.365567      1.025539      1.571883
H      -0.408509     -1.376110      2.462769
H       0.578231     -1.903659      1.011546
