14
Extracted from Q-Chem output
O       1.564453      1.832097     -0.489692
C       1.363417      0.590945     -0.860422
C       0.304263     -0.049590     -0.204401
C      -1.008083     -0.690670     -0.771422
N      -1.347381     -0.646436      0.695569
C      -0.652181      0.728356      0.710932
C       0.042366     -1.123253      0.929540
H       1.894510      0.260141     -1.745114
H      -1.618967     -0.030993     -1.381817
H      -0.931336     -1.699238     -1.182447
H       0.747206      2.096549      0.011156
H      -0.338347      0.998390      1.725067
H       0.426849     -0.960381      1.933598
H       0.258801     -2.136375      0.568877
