12
Extracted from Q-Chem output
O      -0.697668      2.100301     -0.740126
C      -0.393625      1.130027     -0.172352
C      -1.111068     -0.090145      0.356655
C      -0.221962     -1.077259     -0.413897
N       0.906552     -0.210602     -0.782059
C       1.604356      0.354170      0.181984
O       1.077942      1.301642      0.823582
H      -1.016441     -0.146070      1.440659
H      -2.167184     -0.076226      0.086373
H      -0.701128     -1.412023     -1.332041
H       0.072463     -1.961651      0.156242
H       2.642472      0.094178      0.419456
