14
Extracted from Q-Chem output
C      -2.204237      0.490805     -0.563963
C      -0.941172      0.270882     -0.198812
C      -0.010437     -0.762068     -0.599128
C       1.148584     -0.545701      0.055329
N       2.350549     -1.185266      0.000658
O       1.140882      0.519521      0.880664
C      -0.163590      1.119153      0.785691
H      -2.770187      1.322159     -0.162235
H      -2.704861     -0.154252     -1.274217
H       2.343275     -2.115423     -0.376673
H      -0.202601     -1.557344     -1.300509
H       2.949285     -1.051224      0.797082
H      -0.608104      1.120761      1.782070
H      -0.036591      2.148124      0.445854
