13
Extracted from Q-Chem output
C      -1.224468     -0.667305      0.710898
C      -0.041039     -0.108107      0.015900
O      -0.538497      0.232780     -1.641386
C       1.287604     -0.450023     -0.284668
C       0.996626      0.869786      0.407942
H      -0.928108     -0.887808      1.739283
H      -1.554144     -1.594179      0.241821
H      -2.058267      0.034615      0.741259
H      -0.623617      1.182607     -1.787624
H       1.831342     -1.281776      0.139585
H       0.529004     -0.079378     -1.630832
H       1.120620      0.988258      1.484721
H       1.134684      1.801948     -0.136069
