15
Extracted from Q-Chem output
C      -1.556969     -0.660854      0.443451
N      -0.481076     -0.282592     -0.436480
C      -0.375145     -0.386835     -1.788272
C       0.814335      0.129858     -2.293984
C       0.902300      0.581787      1.384275
C       1.404729      0.555312     -1.107069
N       0.641245      0.316425     -0.006485
H      -1.998352      0.208324      0.935166
H      -1.226696     -1.377967      1.197116
H      -2.319989     -1.134657     -0.169732
H      -1.213331     -0.848883     -2.297913
H       1.870250      1.074005      1.438361
H       0.946777     -0.341002      1.965865
H       0.150024      1.246767      1.812748
H       2.360007      1.037303     -0.934531
