15
Extracted from Q-Chem output
C      -1.951827     -0.372820      0.320839
N      -0.748870      0.059155     -0.349820
C      -0.157749     -0.466574     -1.483580
C       1.085182      0.063691     -1.744277
C       1.417089      0.079887      1.063741
C       1.159848      0.957275     -0.647203
N       0.043161      0.945544      0.217481
H      -2.621736     -0.811683     -0.416581
H      -2.435781      0.485279      0.782627
H      -1.732019     -1.120520      1.087160
H      -0.733145     -1.202097     -2.034976
H       2.478135      0.094526      0.829654
H       1.035983     -0.932767      0.991435
H       1.232126      0.558672      2.018436
H       1.847709      1.779421     -0.492425
