12
Extracted from Q-Chem output
N       2.090903      0.281920     -0.072281
C       1.033082      0.475573     -0.790029
C      -0.085242      1.210317     -0.311627
N      -1.188210      0.758158      0.148640
C      -1.550571     -1.210289      0.292943
O      -2.685894     -1.282929      0.587563
N      -0.399122     -1.602247      0.005577
H       2.895024     -0.169385     -0.478986
H       2.131272      0.427677      0.930555
H       0.041369      2.280036     -0.522302
H      -1.920545      1.446903      0.269693
H      -0.356283     -2.612295     -0.060511
