17
Extracted from Q-Chem output
C      -1.432707      1.352950      0.100788
C      -1.025514     -0.082640     -0.176402
N       0.414083     -0.305634      0.013335
C       0.826289     -1.619223      0.519568
C       1.011727     -0.443494      1.423033
C       1.271774      0.335747     -0.978378
H      -2.518801      1.439418      0.049124
H      -1.109675      1.658311      1.096680
H      -1.013492      2.048516     -0.626988
H      -1.538070     -0.754517      0.511720
H      -1.295273     -0.376520     -1.196569
H      -0.004570     -2.320246      0.593143
H       1.689836     -2.042467      0.010694
H       0.143915     -0.381674      2.093001
H       1.156543      1.416991     -0.914101
H       1.015829     -0.008663     -1.984491
H       2.301931      0.089292     -0.739487
