14
Extracted from Q-Chem output
O      -1.811549      0.629622     -0.480342
C      -1.555252     -0.553788      0.014807
C      -0.160875     -0.822552      0.300242
C       0.899419     -0.289663     -0.620692
C       1.226399      0.988060      0.149268
O       0.144329      1.068926      1.080574
H      -0.694660      1.233170      0.516910
H      -2.231755     -0.950239      0.795384
H      -1.503895     -1.463685     -0.726680
H       0.093591     -1.587799      1.032248
H       1.741290     -0.970176     -0.739536
H       0.442220     -0.071419     -1.586551
H       1.280741      1.878103     -0.480338
H       2.148040      0.903590      0.724722
