10
Extracted from Q-Chem output
O       1.882770     -0.324204      0.106004
C       0.555695     -0.035399     -0.006434
C      -0.341161     -1.186943      0.107160
N      -1.598162     -1.042872      0.109687
C      -0.372343      2.193184     -0.582369
N       0.128422      1.138662     -0.187644
H       2.400172      0.451212     -0.125724
H       0.180261     -2.145676      0.179340
H      -2.065422     -1.942845      0.173780
H      -0.672766      2.874121      0.226116
