13
Extracted from Q-Chem output
C       1.928046      0.751915      0.983639
N       1.299263     -1.302765     -0.210782
C       0.212188     -0.788646     -0.145013
C      -1.328475     -0.917696     -0.240443
C      -1.425340      0.407122      0.496101
O       0.051017      0.550183      0.381568
H       1.594559      1.702051      1.373174
H       2.555090      0.774478      0.107744
H       2.136696     -0.031983      1.693481
H      -1.715874     -1.793002      0.274361
H      -1.690815     -0.891709     -1.265806
H      -1.923408      1.226560     -0.016079
H      -1.726740      0.349923      1.541041
