12
Extracted from Q-Chem output
N       1.152799      1.510846     -0.016840
C       1.149211     -1.012578      0.012252
C       0.046177     -1.814569      0.020642
N      -1.149045     -1.049150      0.011322
C      -0.790918      0.217924     -0.002796
O      -1.602796      1.262763     -0.015105
N       0.535782      0.257726     -0.002551
H       1.757086      1.536482     -0.830503
H       1.757474      1.554796      0.795750
H      -0.031055     -2.888931      0.032593
H      -2.101000     -1.369464      0.014420
H      -1.022432      2.041404     -0.023365
