14
Extracted from Q-Chem output
O       0.823445      1.215083     -1.120280
C       1.265116     -0.125117     -0.807782
C      -0.004789     -0.356534     -0.020358
C      -0.823969     -1.536698      0.265386
N      -0.070463     -0.863637      1.328224
C      -0.430614      1.041256     -0.461107
O      -0.679693      1.980753      0.521129
H       0.111437      2.065565      1.062786
H       1.380554     -0.729105     -1.710605
H       2.190334     -0.130210     -0.227578
H      -0.462995     -2.524465      0.003686
H      -1.902431     -1.418031      0.239529
H      -0.686318     -0.281509      1.887173
H      -1.273616      1.099570     -1.154800
