16
Extracted from Q-Chem output
C      -2.268568     -0.178586     -0.952218
C      -0.212557      0.452627     -0.885405
O      -0.311463      1.545776     -0.078187
C       0.283849     -0.734917     -0.111703
C       1.808107     -0.737774     -0.002693
O       2.474409     -1.684611     -0.357796
N       2.347109      0.372220      0.558903
H      -2.317597     -0.110264      0.128573
H      -2.410935     -1.195693     -1.311357
H      -2.958509      0.523398     -1.421136
H      -1.168264      0.236743     -1.609567
H      -0.364641      2.327552     -0.632884
H      -0.121304     -0.768561      0.910076
H       0.017895     -1.654914     -0.625251
H       3.346504      0.432433      0.632195
H       1.776345      1.165965      0.785217
