13
Extracted from Q-Chem output
C      -1.775528     -0.016722      0.183773
C      -0.327420      0.079174      0.564511
N       0.670384     -0.468990     -0.420195
C       1.735047      0.328265      0.244506
C       0.536866      1.344316      0.174842
O       0.419662      0.573286     -1.342863
H      -2.160253     -1.034796      0.284458
H      -1.933262      0.336811     -0.832826
H      -2.342172      0.623613      0.861100
H      -0.129416     -0.304450      1.569677
H       0.727538     -1.409800     -0.838187
H       2.573619      0.506245     -0.423453
H       2.028051     -0.049633      1.225883
