17
smiles: [C:1]1([H:8])([H:10])[C@@:2]2([H:11])[C@:3]1([H:13])[C@@:4]1([H:14])[O:5][C:6]([H:15])([H:16])[C@@:7]21[H:17].[H:9][H:12]
C        0.94659700      -0.42784000      -0.79586700
C        0.60543500       0.01334500       0.58898100
C        0.11279200       0.79748100      -0.62958100
C       -1.32917700       0.42297700      -0.25931500
O       -1.86170500      -0.78184500      -0.84095200
C       -1.51242800      -1.54793200       0.33263300
C       -0.84250900      -0.33066100       0.97789100
H        1.97187400      -0.23849400      -1.08762900
H        3.39051600       2.06193700      -0.33353500
H        0.51563200      -1.31967800      -1.23296900
H        1.37452200       0.28796800       1.29766500
H        2.94211900       2.47483300       0.09405300
H        0.43057100       1.76326800      -0.99853400
H       -2.05080900       1.23925700      -0.22959700
H       -0.87683800      -2.40601500       0.09608200
H       -2.41001100      -1.89331600       0.85298100
H       -1.14228200      -0.04357600       1.98161000
