17
Extracted from Q-Chem output
C       1.823388     -0.533200     -0.036071
C       0.768794      0.149263      0.593420
C       0.001506      1.074243     -0.356070
C      -1.408808      0.835464      0.146894
O      -2.165227     -0.001032     -0.745832
C      -1.498063     -1.171056     -0.235574
C      -0.746934     -0.357703      0.814427
H       2.774908     -0.688226      0.452680
H       2.201983      1.184420     -0.805558
H       1.658974     -1.054445     -0.971841
H       1.054570      0.625780      1.530358
H       1.631238      1.775027     -0.827199
H       0.085896      0.752688     -1.396822
H      -1.989632      1.618767      0.624854
H      -0.890464     -1.680585     -0.987708
H      -2.218730     -1.872885      0.189328
H      -0.881866     -0.608644      1.861952
