14
smiles: [H:10][H:12].[O:1]([C:2](/[C:3](=[C:4]1/[C:5]([H:13])([H:14])[O:6]1)[H:11])([H:8])[H:9])[H:7]
O        2.56064400       0.82056900       0.90173600
C        1.69309300      -0.03821300       0.17960500
C        0.33626400      -0.13546400       0.80680000
C       -0.76379100       0.25343700       0.19873000
C       -2.16079100       0.50209400       0.02708200
O       -1.14323900       0.77125200      -0.98771200
H        2.13277800       1.67619000       0.97479300
H        1.59749800       0.28176300      -0.86431900
H        2.18548800      -1.01238900       0.18240100
H       -0.57240000      -2.26082500      -2.28142300
H        0.25408600      -0.51806800       1.81653600
H       -0.68925400      -1.53598900      -2.15710200
H       -2.61158800       1.39174400       0.45399300
H       -2.83474500      -0.31138900      -0.21942900
