13
Extracted from Q-Chem output
C      -2.252768      0.253554      0.388869
N      -0.811535      0.228734      0.421457
C      -0.203719     -0.433909     -0.456008
C       1.284794     -0.534760     -0.474445
C       2.115830      0.452011      0.214376
O       1.925880     -0.837487      0.755585
H      -2.681918     -0.306863     -0.452635
H      -2.590644      1.290398      0.336413
H      -2.636327     -0.160453      1.323441
H      -0.735920     -0.975016     -1.251472
H       1.700632     -1.058423     -1.331608
H       3.114615      0.660650     -0.159098
H       1.611889      1.252212      0.747273
