11
Extracted from Q-Chem output
C      -1.593950     -0.009978     -0.387524
C      -0.148760     -0.131479     -0.333972
C      -0.789230      0.368698      0.878225
O       2.584255      0.791834     -0.007389
C       2.139250     -0.268035     -0.347307
N       0.890950     -0.454276     -0.951921
H      -0.864623     -0.288205      1.736568
H      -2.187288     -0.915804     -0.349716
H      -2.019685      0.791458     -0.979584
H      -0.671751      1.419021      1.115164
H       2.718327     -1.205301     -0.285552
