17
Extracted from Q-Chem output
C       2.027629      0.407944     -0.114747
C       0.962618     -0.401866      0.611627
C      -0.444038     -0.126816      0.110117
C      -0.919036     -0.855067     -1.124161
C      -1.475301     -1.222353      0.214275
C      -0.909469      1.229611      0.290181
C      -1.278674      2.359019      0.449385
H       2.016222      0.196715     -1.186507
H       3.023712      0.174024      0.264604
H       1.859049      1.478517      0.015457
H       1.160594     -1.471115      0.490609
H       1.001157     -0.195787      1.685139
H      -1.555323     -0.314714     -1.811091
H      -0.214847     -1.532891     -1.590509
H      -1.152076     -2.151812      0.665682
H      -2.492329     -0.933981      0.441467
H      -1.609890      3.360573      0.588474
