18
Extracted from Q-Chem output
C      -1.046203      0.461057     -0.980341
C      -1.689374      0.547912      0.385114
C      -0.605806      0.682771      1.496666
N       0.426859     -0.289148      1.199070
C       1.140994     -0.165206      0.098059
O       1.491095      1.034624     -0.363749
C       1.930619     -1.327791     -0.391013
H      -1.320124     -0.444279     -1.523196
H      -1.310848      1.314833     -1.614675
H       0.555397      1.156625     -0.816139
H      -2.361726      1.403428      0.500756
H      -2.284061     -0.341712      0.624130
H      -0.152975      1.673089      1.476797
H      -0.985590      0.492282      2.501065
H       0.239648     -1.237245      1.485767
H       1.773761     -1.421512     -1.464190
H       1.668744     -2.263030      0.102357
H       2.987984     -1.104838     -0.229541
