10
Extracted from Q-Chem output
C      -0.790053     -0.731275     -0.122857
C      -0.739860      0.762085     -0.270386
N       0.393475      1.257098     -0.022579
C       1.271913      0.165767      0.327362
O       0.531673     -1.047929      0.247035
H      -1.503469     -1.042721      0.650471
H      -1.067169     -1.229703     -1.059837
H      -1.587634      1.376850     -0.557845
H       1.650381      0.307309      1.345198
H       2.119309      0.132452     -0.364846
