12
Extracted from Q-Chem output
O      -0.208628      1.103955     -1.735417
C       0.313504      1.596387     -0.759384
C       0.069706     -0.230036      0.966560
C      -0.428391     -1.402740      0.172780
O       0.010027     -1.518983     -1.143261
C       0.412198      1.004397      0.582014
H      -0.198288     -0.690967     -1.603952
H       0.738862      2.614049     -0.837651
H       0.143371     -0.431701      2.033238
H      -0.106866     -2.310839      0.688922
H      -1.530340     -1.387467      0.248571
H       0.772840      1.691808      1.340379
