16
Extracted from Q-Chem output
C       1.487034     -0.032350      1.188961
C       0.958514      0.452813     -0.133279
C       0.068863     -0.951137     -0.938602
C      -0.486041      0.348784     -0.353363
C      -1.497848      0.222825      0.760945
O      -0.995307      1.230692     -1.328386
H       2.530803     -0.339643      1.118756
H       1.465637      0.851169      1.835061
H       0.918293     -0.819967      1.698118
H       1.227076     -0.661515     -1.006608
H      -0.129170     -1.038930     -2.001998
H      -0.074269     -1.847472     -0.344178
H      -2.474118     -0.027207      0.344652
H      -1.589703      1.177851      1.279846
H      -1.224916     -0.545509      1.483353
H      -0.234012      1.727630     -1.644186
