12
Extracted from Q-Chem output
N       2.454922      0.435972     -0.077763
C       1.039758      0.298998      0.143749
C       0.179314     -0.714477      0.021845
N      -1.202386     -0.524235      0.284594
C      -2.059120     -0.096749     -0.630678
O      -3.269213     -0.036913     -0.043131
N       1.478227      1.498357      0.393077
H       2.802139      0.534892     -1.021962
H       3.107168      0.087330      0.610786
H       0.527615     -1.676572     -0.325265
H      -1.547587     -0.739033      1.216749
H      -3.883863      0.273484     -0.708447
