16
Extracted from Q-Chem output
C      -1.541741     -1.031913      0.525856
C      -0.775789      0.054802     -0.180414
C      -0.819840      0.048912     -1.685347
C       1.787551      0.354107      0.840154
O       3.020839      0.006929      1.130367
C      -0.496350      1.217690      0.478487
N       0.058483      2.070185      1.075842
H      -1.197135     -2.015885      0.197892
H      -1.427913     -0.972940      1.608971
H      -2.614133     -0.977066      0.302339
H      -1.845090      0.162630     -2.058036
H      -0.443277     -0.900415     -2.074981
H      -0.224088      0.855838     -2.114241
H       1.586426      0.833011     -0.097128
H       1.058705      0.024020      1.550288
H       3.637467      0.314806      0.458942
