19
smiles: [C:1]([C:2]([C:3](=[O:4])[H:13])([H:11])[H:12])([H:8])([H:9])[H:10].[C:5]([C:6]([H:15])([H:16])[H:17])(=[C:7]([H:18])[H:19])[H:14]
C       -1.96180500       0.30304300      -0.52458700
C       -1.61256000      -1.12271600      -0.10266500
C       -0.69310000      -1.78398700      -1.09143000
O        0.34999400      -2.30941200      -0.81704800
C        1.60967000       0.38684700       0.86126900
C        2.13037200       0.87683100      -0.45215900
C        1.01160400       1.14015400       1.77097500
H       -2.67472900       0.74748300       0.16988300
H       -2.41154000       0.32378600      -1.51985400
H       -1.07239200       0.93515000      -0.54403400
H       -1.14405200      -1.15412300       0.88164300
H       -2.52631200      -1.72681600      -0.06152400
H       -1.04454500      -1.75672000      -2.14720100
H        1.74337700      -0.67334000       1.06456100
H        1.64383300       0.35864100      -1.28268800
H        3.20255000       0.68448900      -0.54370600
H        1.96290200       1.94807400      -0.57272900
H        0.85549700       2.20258300       1.61259100
H        0.65363300       0.72535300       2.70538800
