19
Extracted from Q-Chem output
C      -2.373859      0.422107     -0.033289
C      -1.217412     -0.502113      0.183996
C      -0.436655     -1.071193     -0.897517
O       0.627020     -1.721913     -0.640316
C       1.566230     -0.003433      0.618256
C       2.407506      0.453276     -0.529567
C       0.488861      0.690523      1.071431
H      -3.332903     -0.090390      0.062963
H      -2.321993      0.899497     -1.012583
H      -2.355726      1.202257      0.728568
H      -1.210647     -1.097214      1.091070
H      -1.455318     -1.718688     -0.846664
H      -0.534167     -0.511554     -1.848888
H       1.958832     -0.816230      1.215671
H       2.830483     -0.391182     -1.068727
H       3.228890      1.076657     -0.161346
H       1.823056      1.057735     -1.226391
H       0.211338      1.627035      0.597627
H       0.105927      0.522107      2.070695
