16
smiles: [C:1](/[C:2](=[C:4](\[C:5]([H:14])([H:15])[H:16])[C:6]#[N:7])[H:11])([H:8])([H:9])[H:10].[O:3]([H:12])[H:13]
C       -1.46974400      -0.60707300      -1.06443200
C       -0.88830700       0.60280900      -0.41594300
O       -0.31907300      -1.66315300       1.85611600
C        0.40267200       0.85945700      -0.19403400
C        1.57961700      -0.00579100      -0.54842400
C        0.73491600       2.10121800       0.45452200
N        1.03216400       3.08525100       0.96865700
H       -2.04699500      -0.31903400      -1.94640900
H       -2.16485000      -1.10045800      -0.38060900
H       -0.72021200      -1.33436900      -1.36908800
H       -1.60362400       1.35267400      -0.09198500
H       -0.20946200      -1.79540200       2.79864100
H       -0.30188500      -0.71382200       1.72857300
H        2.14577500      -0.26518300       0.34810100
H        2.25599900       0.53051300      -1.21642500
H        1.27014300      -0.92625300      -1.03748900
