12
Extracted from Q-Chem output
C      -1.541773      0.413197     -0.257346
C      -0.142069     -0.039160      0.030364
C       0.175200     -1.327161      0.072109
C       1.049176     -2.255507      0.233045
O       1.714971     -3.204251      0.349336
C       0.857494      1.057312      0.259743
H      -1.554547      1.039721     -1.154019
H      -2.211441     -0.430586     -0.401930
H      -1.913101      1.033246      0.563632
H       0.896451      1.714144     -0.613989
H       1.851824      0.663750      0.455646
H       0.543952      1.677706      1.104295
