12
Extracted from Q-Chem output
C      -2.572431      0.289641     -0.477649
C      -1.193868     -0.105976     -0.236029
C      -0.061260     -0.451203     -0.037578
C       1.320567     -0.843923      0.209573
O       1.677830     -1.990192      0.097475
C       2.248694      0.272101      0.609463
H      -2.654075      1.370119     -0.601092
H      -2.957416     -0.193617     -1.376430
H      -3.201394     -0.008393      0.362677
H       2.261863      1.037607     -0.169094
H       1.880879      0.745469      1.522148
H       3.250611     -0.121633      0.766864
