12
Extracted from Q-Chem output
C      -1.890149      0.526858     -0.328603
C      -0.653638     -0.238074     -0.224050
C       0.025202     -1.282074     -0.379400
C       1.332718     -1.593181     -0.093270
O       2.222410     -2.335209     -0.080075
C       1.345496      0.679681      0.690285
H      -1.726114      1.416560     -0.938065
H      -2.687055     -0.072133     -0.773745
H      -2.203212      0.863407      0.660713
H       1.371752      0.628778     -0.376106
H       0.842953      0.029022      1.371516
H       1.911101      1.494049      1.141097
