13
Extracted from Q-Chem output
C       1.930982      0.538691      0.049055
C       0.524771      0.063944      0.012969
C       0.040719     -1.202898      0.002851
N      -1.364489     -1.121508     -0.033752
C      -1.666439      0.183447     -0.043824
O      -2.707173      0.927420     -0.070871
N      -0.567492      0.918383     -0.017217
H       2.108469      1.155743      0.931732
H       2.158976      1.143181     -0.830738
H       2.617415     -0.306933      0.074946
H       0.552763     -2.149637      0.017771
H      -2.016799     -1.882019     -0.048664
H      -1.592361      1.732628     -0.043717
