12
Extracted from Q-Chem output
C      -1.881661     -0.247812     -0.694913
O      -0.915274     -0.287420      0.346293
C       0.370297     -0.200038     -0.028265
N       0.688815     -0.092021     -1.246858
C       1.268823     -0.253780      1.171890
H      -1.815674      0.690951     -1.246470
H      -1.729647     -1.070831     -1.394221
H      -2.848313     -0.334422     -0.203754
H       1.694685     -0.037022     -1.351657
H       1.139454     -1.206619      1.686988
H       2.312272     -0.141021      0.884761
H       0.999882      0.537291      1.872549
