16
Extracted from Q-Chem output
C       2.353300      0.131459     -0.052517
C       0.967357      0.577152     -0.335136
C      -0.335226      0.450186      0.429519
C      -0.854311      1.181931     -0.830967
N       0.535019      1.216751     -1.354610
C      -1.921272     -1.498442      0.343547
C      -0.818189     -0.916679      0.788836
H       2.714305      0.560974      0.884824
H       3.012083      0.434612     -0.865492
H       2.389993     -0.955805      0.050170
H      -0.340030      1.084923      1.322578
H      -1.515899      0.599345     -1.472195
H      -1.282179      2.173530     -0.675444
H      -2.593944     -1.006231     -0.349073
H      -2.196525     -2.495009      0.665869
H      -0.189856     -1.459055      1.492529
