15
smiles: [C:3](=[N:4][C:5]([C:6]([H:7])([H:14])[H:15])([H:12])[H:13])([H:10])[H:11].[O:1]=[C:2]([H:8])[H:9]
O       -2.42059100      -0.78336200      -0.96924300
C       -2.41304900      -0.54527400       0.20257500
C        0.65119800       1.44226500       1.42875900
N        0.11391500       0.61812300       0.64699400
C        0.71178300       0.42804000      -0.65979100
C        1.11693500      -1.02519600      -0.85130500
H        0.25943300      -1.68263000      -0.70360100
H       -2.03879500      -1.27498200       0.94594900
H       -2.78154300       0.41695500       0.60691400
H        0.22486900       1.59749200       2.41847800
H        1.54290200       2.02694600       1.16464800
H       -0.04470600       0.69404300      -1.40338400
H        1.57603100       1.09220200      -0.81247700
H        1.88800100      -1.30865700      -0.13253200
H        1.51007300      -1.18497400      -1.85674200
