15
Extracted from Q-Chem output
O      -1.207454     -1.384419      0.203894
C      -1.605324     -0.339503      0.855598
C      -0.330253      0.886661      0.912128
N       0.171408      1.074541     -0.318438
C       1.455213      0.540469     -0.647043
C       0.759056     -0.649639     -1.232387
H      -0.334527     -0.967944     -0.626178
H      -1.706021     -0.473936      1.938871
H      -2.444856      0.218665      0.417254
H      -0.985039      1.705623      1.202290
H       0.361936      0.554195      1.693806
H       1.996654      1.176521     -1.344666
H       2.079130      0.302312      0.220676
H       1.205538     -1.608622     -0.972904
H       0.507439     -0.535636     -2.279666
