13
smiles: [C:1]([C:2]([O:3][H:13])([H:10])[H:11])([H:7])([H:8])[H:9].[C:4](=[O:5])=[N:6][H:12]
C       -1.64303400       0.15163200      -0.13456100
C       -0.88315100       0.15012100      -1.44778400
O        0.19575000       1.06629700      -1.45830300
C        2.14623100      -0.58154800       1.53245600
O        1.90518800      -0.83419200       2.63850400
N        2.27320300      -0.25501900       0.37681600
H       -2.00546800       1.15468600       0.09586700
H       -1.00392500      -0.17781800       0.68946300
H       -2.49922300      -0.52482400      -0.18141500
H       -0.53282800      -0.86350300      -1.68288900
H       -1.53809200       0.46111100      -2.26355800
H        3.06672900      -0.45626200      -0.20272500
H        0.80503400       0.82772000      -0.75738400
