13
Extracted from Q-Chem output
C      -2.049790      0.434784     -0.099784
C      -0.868495     -0.426328     -0.473899
O       0.318260      0.271568     -0.079437
C       1.475160     -0.365054     -0.337285
O       1.558430     -1.452667     -0.850863
N       2.531068      0.400044      0.043090
H      -2.004810      1.399638     -0.606544
H      -2.080174      0.610397      0.976389
H      -2.975329     -0.063139     -0.392904
H      -0.895083     -1.393963      0.030757
H      -0.827772     -0.614607     -1.548610
H       3.437694     -0.025632      0.025145
H       2.380841      1.224959      0.591585
