14
Extracted from Q-Chem output
C       1.571970     -0.675318      0.201515
C       0.538491      0.390506     -0.109623
C      -0.438014      0.102944     -1.297373
C      -1.557386      0.153016     -0.276148
C      -0.709710      0.397333      0.724670
O      -0.778519      0.596811      2.051743
H       2.054475     -0.486307      1.162260
H       1.103074     -1.661365      0.248382
H       2.347039     -0.703012     -0.567307
H       1.007593      1.376091     -0.181877
H      -0.456141      0.877140     -2.068065
H      -0.272066     -0.867581     -1.772144
H      -2.630403      0.039323     -0.354386
H      -1.693915      0.538041      2.337620
