11
Extracted from Q-Chem output
C       2.539606      0.328896     -0.732324
C       1.360112      0.326171     -0.173687
C       0.066498      0.000329      0.068054
C      -1.096595     -0.810586     -0.282969
C      -1.200425      0.347420      0.713416
H       3.330376     -0.279880     -0.292893
H       0.775122      1.329751     -0.360352
H      -1.555620     -0.674574     -1.255349
H      -1.133443     -1.827386      0.095014
H      -1.751745      1.223239      0.388269
H      -1.312566      0.113024      1.766400
