17
smiles: [C:1]([C@@:2]([O:3][H:12])([C:4](=[C:5]([H:15])[H:16])[H:14])[H:11])([H:8])([H:9])[H:10].[C:6](=[O:7])([H:13])[H:17]
C       -1.92970000      -0.13006300       0.10577000
C       -0.83486400      -0.82403300      -0.69765700
O       -0.29000200       0.03886100      -1.67466500
C        0.21001200      -1.42085900       0.20814700
C        1.51660300      -1.26104000       0.07557600
C        1.33305600       2.23550400       0.87076200
O        0.80472700       2.35852900      -0.19491800
H       -2.40780800      -0.82308100       0.80087400
H       -1.51062500       0.69432800       0.68976300
H       -2.69016200       0.26894100      -0.56582400
H       -1.28946600      -1.63894800      -1.27146000
H        0.09718400       0.79385800      -1.22330700
H        1.39328800       1.25689100       1.38445700
H       -0.17783500      -2.02215000       1.02714000
H        1.93499400      -0.68974900      -0.74496400
H        2.21112600      -1.71434100       0.77167800
H        1.78971300       3.09371300       1.40014600
