17
Extracted from Q-Chem output
C      -1.948756      0.015779      0.099771
C      -0.736699     -0.617892     -0.577196
O      -0.371912      0.043111     -1.750170
C       0.424751     -0.776281      0.385007
C       1.751301     -0.451983      0.033600
C       1.121304      0.985562      0.668051
O       0.780103      1.878143     -0.162418
H      -2.232926     -0.527468      1.004624
H      -1.725168      1.054187      0.354676
H      -2.792412      0.005655     -0.588921
H      -0.990879     -1.649387     -0.856999
H      -0.026793      0.918252     -1.468899
H       0.226130      0.568868      1.337863
H       0.232970     -1.371134      1.274518
H       1.963576     -0.241163     -1.005584
H       2.558459     -0.879914      0.613600
H       1.830304      1.128136      1.497421
