13
Extracted from Q-Chem output
C      -2.101847      0.243049     -0.283765
C      -0.778551     -0.468775     -0.178040
O       0.248769      0.542338     -0.076565
C       1.476956      0.096352     -0.004723
N       1.866480     -1.084982     -0.036252
C       2.459346      1.377900      0.579435
N       2.551246      1.417683     -0.600414
H      -2.129385      0.883072     -1.165838
H      -2.902403     -0.493228     -0.367949
H      -2.287699      0.856183      0.598217
H      -0.562982     -1.084174     -1.053357
H      -0.716619     -1.105711      0.706322
H       2.872114     -1.178003      0.000153
