13
Extracted from Q-Chem output
C      -1.583077     -0.841800      0.223350
C      -0.439402     -0.066699     -0.363863
C       0.028788      1.228566      0.213858
O       2.902022      0.680082     -0.179858
C       2.043090     -0.159049     -0.139200
N       0.786627      0.020550      0.400808
H      -1.467685     -1.909959      0.031039
H      -2.528734     -0.516284     -0.214169
H      -1.628862     -0.693015      1.302796
H      -0.311009     -0.162057     -1.440133
H      -0.459718      1.618079      1.099612
H       0.451928      1.972647     -0.451886
H       2.203350     -1.194842     -0.487198
