13
Extracted from Q-Chem output
C      -1.616092     -0.706453      0.228058
C      -0.402516     -0.010753     -0.348683
C       0.042719      1.211564      0.240668
O       2.270225      1.030351     -0.268680
C       2.000492     -0.168440     -0.117359
N       0.827114     -0.704383      0.142632
H      -1.618665     -1.742884     -0.111006
H      -2.537030     -0.221800     -0.099100
H      -1.575632     -0.706020      1.317727
H      -0.430698      0.023121     -1.440110
H       0.017300      1.293078      1.320578
H       0.324313      2.086139     -0.322061
H       2.808135     -0.914281     -0.166431
