11
Extracted from Q-Chem output
O       2.268331     -0.553259     -0.530200
N       1.475346      0.355505      0.211659
C       0.228576      0.139983     -0.121267
C      -0.919142      0.957749      0.439755
O      -1.844799     -0.177572      0.338804
C      -0.900650     -1.067152      0.112496
H       3.160461     -0.293620     -0.296167
H      -1.292504      1.758119     -0.197022
H      -0.800507      1.280986      1.470747
H      -1.249427     -1.954820     -0.435875
H       0.029495     -0.093107     -1.213351
