14
Extracted from Q-Chem output
C      -1.623498     -0.910029     -0.194480
C      -0.282027     -0.290350     -0.037117
C       0.040965      1.116607      0.373891
N       1.462282      1.129312      0.132287
C       1.921120     -0.093062      0.454228
O       2.963070     -0.599147      0.677790
O       0.699076     -1.035144      0.369359
H      -2.037592     -1.100147      0.798987
H      -1.543118     -1.861939     -0.715892
H      -2.295416     -0.245271     -0.734156
H       0.262958      0.097699     -1.490998
H      -0.193008      1.214233      1.440690
H      -0.486834      1.883383     -0.189147
H       0.989790      0.580867     -1.230455
