8
smiles: [H:5][H:6].[O:1]=[C:2]([C:3](=[O:4])[H:8])[H:7]
O       -1.11511500       0.73249100      -1.46378300
C       -0.32499800      -0.03622800      -1.00894700
C        0.90513100       0.42140400      -0.20185100
O        1.12627500       1.56977700       0.03181300
H       -1.23552900      -0.44073500       1.89990800
H       -0.72690200      -0.96045600       2.05978800
H       -0.42281800      -1.13427400      -1.13732500
H        1.57183500      -0.39459800       0.14597400
