13
Extracted from Q-Chem output
C       1.297960     -0.024301      0.635041
C      -0.074115      1.006830     -1.937354
C       0.094832     -0.961140      0.667390
N      -1.237273     -0.403371      0.504423
C      -1.591063      0.587037     -0.146866
O      -0.782494      1.448871     -0.938515
H       1.563892      0.323955     -0.363817
H       1.127654      0.853613      1.260446
H       2.163468     -0.556130      1.032691
H      -0.276701     -0.094378     -2.011927
H       0.202984     -1.753816     -0.078798
H       0.072775     -1.469886      1.632773
H      -2.615094      0.949565     -0.156451
