14
Extracted from Q-Chem output
C      -1.674324     -1.299724     -0.565746
N      -0.535858      0.306334      0.242965
C      -0.588595      1.506017      0.899762
O      -1.609659      2.022029      1.276187
C       0.554723     -0.294164     -0.183824
O       0.346099     -1.385983     -0.749205
C       1.954575      0.228737     -0.050295
H      -2.308588     -1.047531      0.269299
H      -1.898443     -0.762178     -1.474660
H      -1.506663     -2.359738     -0.690566
H       0.394080      1.992422      1.073200
H       2.055091      1.164853     -0.600782
H       2.655612     -0.500326     -0.446583
H       2.187498      0.427177      0.996172
