21
smiles: [C:1]1([H:8])([H:10])[C:2]([H:11])([H:12])[C:3]([H:13])([H:14])[C:4]([H:15])([H:16])[C:5]1([H:17])[H:18].[O:6]([C:7]([H:19])([H:20])[H:21])[H:9]
C       -0.52448800      -0.52686100      -0.21466200
C       -2.00981200      -0.10599600      -0.25305000
C       -2.05277100       1.35248700       0.26108500
C       -0.65207700       1.62845500       0.81844300
C        0.25501800       0.78213900      -0.07157700
O        2.67806400      -1.76835400      -0.01542800
C        2.97870300      -1.46546100      -1.36061100
H       -0.33618700      -1.15714400       0.65863100
H        1.72970100      -1.86507100       0.07367900
H       -0.22835400      -1.10415500      -1.09183000
H       -2.41072100      -0.16896300      -1.26607400
H       -2.62048300      -0.76661100       0.36414700
H       -2.25718000       2.03634800      -0.56642800
H       -2.83654600       1.51281600       1.00278600
H       -0.58064500       1.27600300       1.85250500
H       -0.39559700       2.68934300       0.81774000
H        0.36494400       1.26448800      -1.04842400
H        1.25667800       0.64112800       0.33850500
H        2.52198700      -0.52407500      -1.68681500
H        2.66833200      -2.26294900      -2.04536200
H        4.06090200      -1.36004000      -1.43044200
