21
Extracted from Q-Chem output
C      -0.788185     -0.816398     -0.975891
C      -1.836167     -0.363465      0.009768
C      -1.651459      1.112236      0.350589
C      -0.216159      1.371755      0.770307
C       0.799219      1.011865     -0.242800
O       1.582400     -0.938391      0.110151
C       2.538176     -1.308897     -0.846185
H      -0.825822     -1.898207     -1.140539
H       0.579271     -0.943667     -0.356778
H      -0.885172     -0.322774     -1.946150
H      -2.858332     -0.516302     -0.358577
H      -1.755290     -0.952898      0.930824
H      -1.883956      1.722904     -0.529507
H      -2.335968      1.426005      1.142269
H       0.023485      0.863884      1.709583
H      -0.061608      2.443880      0.966973
H       0.578842      1.199130     -1.284333
H       1.826115      1.203242      0.035743
H       2.154599     -1.169286     -1.867420
H       2.817780     -2.360451     -0.727120
H       3.445121     -0.706945     -0.729308
