11
Extracted from Q-Chem output
O       2.162161     -0.239790      0.655785
C       0.961405     -0.599250      0.285003
C       1.214050      0.633351     -0.357751
C       0.013859      0.950228      0.366829
N      -1.134171      0.229557     -0.070038
C      -1.017152     -1.104258     -0.171080
N       0.138425     -1.638918      0.144031
H       1.776004      0.888922     -1.242402
H      -0.164115      1.772485      1.051397
H      -2.013772      0.687445     -0.232123
H      -1.862736     -1.695389     -0.496275
