16
Extracted from Q-Chem output
C       1.883333      0.868344      0.357368
C       1.121425     -0.369474      0.603200
C      -0.388094     -0.376406      0.923558
C      -0.906115     -1.182562     -0.306176
C      -0.421750      0.095904     -1.036289
C      -0.936602      0.863264      0.187081
N       1.042573     -0.113254     -0.842608
H       1.943709      0.582203     -0.993327
H       1.271555      1.759736      0.500253
H       1.652172     -1.272865      0.898779
H      -0.670058     -0.621398      1.944273
H      -0.394731     -2.111880     -0.559024
H      -1.987787     -1.313391     -0.323126
H      -0.673467      0.342007     -2.064520
H      -0.551636      1.856144      0.405660
H      -2.024579      0.883817      0.204482
