15
Extracted from Q-Chem output
C      -1.539522      0.062004      0.737068
C      -1.415516     -0.270432     -0.559130
O      -0.003928      0.823290     -1.456725
C       0.939684      0.932446     -0.652689
C       1.559578     -0.341392     -0.108621
O       0.681482     -1.137348      0.651940
C      -0.714562     -1.131072      0.410928
H      -0.391486      1.041074      0.922653
H      -2.303448      0.391703      1.422064
H      -1.964144     -0.344601     -1.480434
H       0.357749      1.450307      0.741969
H       1.517437      1.865165     -0.633635
H       1.935138     -0.898545     -0.978264
H       2.400667     -0.111440      0.548521
H      -1.076976     -2.140620      0.586318
