16
Extracted from Q-Chem output
C      -0.060507     -1.360508     -0.225309
C      -0.828318     -0.506742      0.776027
C      -1.036923      0.893260      0.212886
C       0.295396      1.538685     -0.181265
C       1.352904      0.755281     -0.847098
C       1.264304     -0.699658     -0.620784
H      -0.671376     -1.498190     -1.123639
H       0.126670     -2.360649      0.173771
H      -0.265100     -0.445983      1.715149
H      -1.787644     -0.969546      1.018827
H      -1.562874      1.530377      0.928373
H      -1.678058      0.833607     -0.672881
H       0.875973      1.811432      0.724497
H       0.163786      2.502741     -0.680105
H       1.988152     -0.753638      0.218767
H       1.781200     -1.241282     -1.417672
