19
Extracted from Q-Chem output
C      -0.773915     -2.646101      1.069506
O      -0.108625      1.332795      1.291994
C      -0.086103      1.364213     -0.122615
C       0.475272      2.711395     -0.530861
C       0.729115      0.205919     -0.696712
C       0.069428     -1.148620     -0.534277
O      -0.111813     -1.428901      0.840100
H      -1.774942     -2.645639      0.620163
H      -0.866737     -2.773962      2.146882
H      -0.206093     -3.489188      0.656878
H      -1.115793      1.281221     -0.508748
H       1.516653      2.798962     -0.213215
H      -0.092177      3.510972     -0.053801
H       0.424550      2.846303     -1.613071
H       1.712929      0.197915     -0.217624
H       0.887395      0.370759     -1.766682
H      -0.907875     -1.156803     -1.040549
H       0.684508     -1.935817     -0.991929
H      -0.251591      0.416620      1.554916
