10
Extracted from Q-Chem output
C       1.997019      0.625412     -0.364532
C       1.239493     -0.371991     -0.167740
C      -0.084559     -0.386320      0.189723
C      -0.656037      0.961976      0.208527
N      -1.951624      0.762473      0.287304
N      -2.285034     -0.504197      0.261392
N      -1.156667     -1.191493      0.146365
H       3.025906      0.930214     -0.326618
H       1.052354      1.419474     -0.357964
H      -1.188399     -2.197570      0.136711
