15
Extracted from Q-Chem output
C       1.524021      1.012227     -0.188996
C       0.479386     -0.041836      0.098945
O       0.802442     -0.805374      1.261522
C      -0.943780      0.478428      0.278564
C      -1.783530     -0.677004     -0.216467
O      -0.869073     -1.429259     -1.097365
C       0.374198     -1.123645     -0.987619
H       1.288997      1.550110     -1.110011
H       1.579704      1.727150      0.633925
H       2.502020      0.545477     -0.316371
H       1.554301     -1.366291      1.042830
H      -1.141374      0.726448      1.320285
H      -1.099156      1.368254     -0.332591
H      -2.646864     -0.405604     -0.819994
H      -2.083617     -1.369781      0.568460
