14
smiles: [C:1]([C@@:2]1([H:11])[O+:3]=[C-:4]/[C:5](=[N:6]/[H:14])[O:7]1)([H:8])([H:9])[H:10].[H:12][H:13]
C       -1.95562200       0.66512200       0.23696600
C       -0.71155200      -0.17590400       0.24432300
O       -0.46507400      -0.70632700      -1.10565000
C        0.67759400      -0.38317800      -1.60595500
C        1.31424800       0.45510800      -0.51764200
N        2.44947800       0.97951400      -0.57185800
O        0.43675100       0.55082700       0.54069200
H       -2.13591600       1.05916300       1.23680400
H       -2.80994200       0.05858300      -0.06290300
H       -1.83998900       1.49596800      -0.45943200
H       -0.78725400      -1.04725900       0.89924200
H        1.83486800      -2.44585600       0.27588400
H        1.52095900      -2.43767700       0.95102300
H        2.66593900       1.49909200       0.27676900
