14
Extracted from Q-Chem output
C      -2.008726      0.670798      0.036710
C      -0.738444     -0.057047      0.359282
O      -0.402351     -0.977622     -0.693901
C       0.896152     -0.967117     -0.946501
C       1.423210      0.245221     -0.213774
N       2.585262      0.705342     -0.263300
O       0.360924      0.814041      0.443867
H      -2.248521      1.367784      0.838981
H      -2.824533     -0.044206     -0.067617
H      -1.892323      1.222742     -0.895764
H      -0.805729     -0.644076      1.285394
H       1.537591     -2.065296     -0.496322
H       1.535051     -1.996105      0.363003
H       2.676366      1.548923      0.296927
