13
Extracted from Q-Chem output
C      -2.209641      0.143051      0.134496
O      -1.254589     -0.820759      0.530798
C       0.032494     -0.578821      0.306997
N       0.400673      0.550100     -0.370309
N       1.749504      0.433952     -0.593296
C       2.132068     -0.671919      0.152858
C       1.100422     -1.388256      0.705699
H      -3.169633     -0.208011      0.504014
H      -1.989311      1.121926      0.570962
H      -2.266572      0.225630     -0.957032
H       2.264841      1.302161     -0.551167
H       3.199158     -0.853809      0.208488
H      -0.145594      1.010893     -1.081221
