17
Extracted from Q-Chem output
C      -1.591715     -0.333360      0.960375
C      -1.921607      0.246433     -0.383493
C      -0.489359      0.086637      0.025141
C       0.380461      1.243326      0.360683
C       1.663825      0.956039      0.188805
C       1.865260     -0.461990     -0.281237
C       0.439634     -0.920665     -0.651379
H      -1.746033     -1.394952      1.109756
H      -1.774341      0.274942      1.837473
H      -2.336816      1.245985     -0.421312
H      -2.298771     -0.424453     -1.145979
H      -0.011571      2.184305      0.729216
H       2.294420     -1.069244      0.522974
H       2.484536      1.631352      0.396297
H       2.554118     -0.533074     -1.125888
H       0.305724     -0.863728     -1.734643
H       0.233687     -1.949017     -0.350727
