17
Extracted from Q-Chem output
C      -1.452786     -0.457329      0.966867
C      -1.934033      0.187545     -0.300233
C      -0.466119      0.081482     -0.050953
C       0.408295      1.243438      0.273000
C       1.756273      0.809315      0.075392
C       1.816841     -0.499792     -0.474446
C       0.416310     -0.875808     -0.867438
H      -1.543672     -1.533798      1.054517
H      -1.575257      0.087794      1.895124
H      -2.387758      1.168255     -0.233878
H      -2.357221     -0.449802     -1.068142
H       0.123233      2.091967      0.876687
H       1.469306      0.218490      1.046469
H       2.625432      1.428181      0.264062
H       2.724306     -1.005480     -0.760943
H       0.274255     -0.650024     -1.939741
H       0.154044     -1.925902     -0.720278
