16
smiles: [H:8][H:16].[O:1](/[C:2](=[C:3](\[C:6]1([H:15])[C:4]([H:11])([H:12])[C:5]1([H:13])[H:14])[H:10])[H:9])[H:7]
O        2.45878700       0.21608400       1.04554300
C        1.88279200      -0.80717800       0.36278300
C        0.59850200      -0.94510200       0.05293400
C       -1.90408900      -0.51070200       0.49945700
C       -1.51241000       0.37959500      -0.63688600
C       -0.49032000      -0.00697400       0.40034500
H        1.79798400       0.88286900       1.24691300
H        1.44929800       2.14359800      -1.69985400
H        2.62023800      -1.54808500       0.08194200
H        0.32660000      -1.83082500      -0.51052800
H       -2.53713400      -0.10441600       1.27705500
H       -2.07006400      -1.55998500       0.29068400
H       -1.40872700      -0.06418400      -1.61863700
H       -1.87629300       1.39865600      -0.64053000
H       -0.24271100       0.77501400       1.11175900
H        1.31237000       1.42608800      -1.55523400
