16
Extracted from Q-Chem output
C       1.801499     -0.498035     -0.095668
N       0.736882      0.490691     -0.131447
C      -0.237106      0.504257      0.970479
C      -1.175125      1.602814      0.450646
C      -0.322376      0.196466     -1.096447
C      -1.098964     -0.959195     -0.538010
C      -1.050274     -0.776766      0.780312
H       1.454256     -1.523514      0.085307
H       2.331413     -0.475677     -1.050179
H       2.510321     -0.221986      0.685764
H       0.172290      0.701588      1.961988
H      -0.551814      2.512799      0.391036
H      -1.163102      1.095721     -0.847396
H      -0.072342      0.256808     -2.154310
H      -1.682052     -1.666782     -1.107754
H      -1.555728     -1.333420      1.555709
