11
Extracted from Q-Chem output
N       2.178257      0.353871      0.108335
C       0.858464     -0.021509      0.064556
N       0.463876     -1.268368      0.163075
N      -0.900979     -1.130795      0.131971
C      -1.210028      0.155939      0.010376
O      -2.475187      0.564733     -0.050185
N      -0.139605      0.906409     -0.037691
H       2.825704     -0.383937     -0.110149
H       2.370841      1.224879     -0.354940
H      -1.508534     -1.925586      0.194019
H      -2.462808      1.524364     -0.119367
