11
Extracted from Q-Chem output
C       0.804979      0.953515      0.259434
C       1.269255     -0.283392     -0.119063
O      -0.519981     -1.515426     -0.062337
C      -1.279265     -0.533969     -0.230525
O      -1.118224      0.537097      0.584366
H       0.622621      1.716839     -0.485812
H       0.941233      1.295049      1.275776
H       1.429416     -0.526950     -1.160392
H       1.706917     -0.956552      0.603241
H      -1.655244     -0.294306     -1.241153
H      -2.198988     -0.373278      0.569358
