11
smiles: [C:2]1([H:8])=[C:4]([H:11])[C:3]1([H:9])[H:10].[O:1]([C:5]#[N:6])[H:7]
O        0.83926900       1.90496400      -0.55044800
C       -1.34252300      -0.28706000       0.22511200
C       -0.87967900      -1.47812600      -0.56133100
C       -0.22361600      -0.79380600       0.60149600
C        1.89185100       1.78702100       0.19068300
N        2.84918000       1.72936300       0.82531500
H        0.21465200       1.19415400      -0.36677200
H       -2.11336300       0.45334600       0.34344400
H       -1.36518300      -2.44224100      -0.41501400
H       -0.47793700      -1.33823800      -1.56415500
H        0.62614200      -0.78496000       1.26041700
