15
Extracted from Q-Chem output
C       2.546579      0.102434      0.296154
C       1.264036      0.419209      0.367747
C       0.458089      0.903528     -0.796760
O      -0.671956      0.073237     -1.043232
C      -1.708335      0.239857     -0.157135
C      -2.217294     -0.821453      0.455210
O      -1.737805     -2.077814      0.313736
H       3.096733      0.174047     -0.636707
H       3.096853     -0.237722      1.164866
H       1.051232      0.887678     -1.711704
H       0.730362      0.332670      1.310882
H       0.117400      1.933279     -0.626606
H      -2.108297      1.240347     -0.032097
H      -3.079266     -0.754649      1.103987
H      -0.988762     -2.032331     -0.292374
