17
Extracted from Q-Chem output
C       2.861006      0.347997     -0.386521
O       1.784995     -0.218482      0.310620
C       0.598498     -0.217429     -0.429425
C      -0.533128     -0.691085      0.465708
O      -1.025802      0.235865      1.365256
C      -1.825472     -0.815516     -0.208460
O      -2.577857      1.193268     -0.217970
H       3.734811      0.298195      0.261586
H       2.664326      1.397782     -0.639905
H       3.074721     -0.200407     -1.314440
H       0.365797      0.791570     -0.801619
H       0.686704     -0.891013     -1.300007
H      -0.224997     -1.631880      0.948772
H      -1.914711      1.092793      0.572045
H      -2.611270     -1.312066      0.343196
H      -1.993880     -0.636729     -1.261773
H      -3.458498      1.189942      0.166608
