16
smiles: [C:1]([C:2]([C+:3]=[C:5]([O-:6])[H:16])([H:10])[H:11])([H:7])([H:8])[H:9].[C:4]([H:12])([H:13])([H:14])[H:15]
C        1.94834200      -0.77268500      -0.30701600
C        1.11907500       0.29959300       0.38317100
C        0.29993300       1.15540600      -0.44673400
C       -2.22151700      -1.34406900      -0.13986500
C       -0.21257900       2.37228800       0.07370700
O        0.43992400       3.39841100      -0.01396200
H        2.78110800      -0.31483500      -0.84140000
H        2.35908300      -1.47726300       0.41765200
H        1.34351400      -1.32065400      -1.02920100
H        0.26951800      -0.17182600       0.93349300
H        1.67300900       0.84195500       1.16165700
H       -1.81652300      -0.69058400      -0.91103200
H       -2.45489500      -0.75679700       0.74693800
H       -3.12858200      -1.82039400      -0.50895300
H       -1.48673500      -2.10711500       0.11199500
H       -1.25503200       2.35372900       0.46104800
