12
Extracted from Q-Chem output
C      -1.781332      0.057366      0.086102
N      -0.796532      0.096532     -0.976797
C       1.513555     -0.520215      0.159662
C       0.496863     -0.112830     -0.775603
N       1.638785     -0.098705     -1.299894
C       1.974081      0.393959      1.185024
N       2.320496      1.106724      2.015719
H      -1.320321     -0.373400      0.972922
H      -2.628125     -0.566855     -0.200732
H      -2.139631      1.057812      0.335921
H      -1.064914      0.454596     -1.878191
H       1.676137     -1.568748      0.392439
