11
Extracted from Q-Chem output
O      -1.473675      1.737497      0.779963
C      -0.785049      0.795755      0.530075
C      -1.003611     -0.461273     -0.299701
N       0.376203     -0.977831     -0.045328
C       1.288246      0.123768     -0.321228
C       0.609246      0.432224      0.978541
H      -1.752816     -1.122869      0.133798
H      -1.202079     -0.337129     -1.364945
H       1.015314      0.712119     -1.191585
H       2.334464     -0.157080     -0.288600
H       0.493467     -0.848341      1.190293
