14
smiles: [C:1]1([H:7])([H:8])[C@@:2]2([H:9])[C:3]([H:10])([H:11])[C@:4]1([H:12])[O+:5]=[C-:6]2.[H:13][H:14]
C       -1.14547600      -1.03930200      -0.18644700
C        0.10693000      -0.25734700      -0.69916800
C       -0.44750300       0.94724800       0.12810900
C       -0.85365700      -0.19734200       1.05451900
O        0.48955700      -0.72498400       1.40114200
C        1.15544600      -0.78085700       0.27535000
H       -2.05473500      -0.74217700      -0.70610000
H       -1.08110700      -2.12193000      -0.08274600
H        0.37734000      -0.18626500      -1.74708800
H       -1.29359100       1.42538300      -0.36266000
H        0.25475700       1.68335400       0.51750300
H       -1.46446500      -0.12505900       1.94890200
H        3.12375500       0.84644300      -0.65858400
H        3.37208800       1.48291600      -0.95459500
