14
Extracted from Q-Chem output
C      -0.901236     -1.050099     -0.176070
C       0.124691     -0.095030     -0.869354
C      -0.501604      1.022392      0.022212
C      -0.562562     -0.136635      1.010402
O       0.853210     -0.469594      1.198550
C       1.343207     -0.492720     -0.053844
H      -1.912225     -0.913602     -0.555570
H      -0.648713     -2.105173     -0.081364
H       0.234474     -0.013146     -1.946298
H      -1.491335      1.328272     -0.313039
H       0.123749      1.880203      0.268594
H      -1.065964     -0.126920      1.971842
H       2.405989      0.124215     -0.249443
H       2.202064      1.047623     -0.262001
