16
smiles: [C:1]([C@@:2]1([H:10])[C:3]([H:11])([H:12])[C:4]([H:14])=[C:5]=[C:6]1[H:16])([H:7])([H:8])[H:9].[H:13][H:15]
C        1.64481700      -0.44739400       0.63374300
C        0.96959300       0.05393300      -0.63977400
C       -0.21678500      -0.89846800      -1.07651200
C       -1.36096100      -0.21345000      -0.37520800
C       -1.10544900       1.10791400      -0.23822900
C        0.18819300       1.35034300      -0.53733400
H        0.90391300      -0.57633800       1.42642400
H        2.39730100       0.26113700       0.98267800
H        2.13621900      -1.40734900       0.46409700
H        1.73013900       0.16362100      -1.42087800
H       -0.29648200      -0.90668400      -2.16766000
H       -0.09910300      -1.93660900      -0.75188500
H       -2.86255900       0.77908200       2.60227100
H       -2.15557100      -0.76360700       0.11872200
H       -2.56037400       1.09863400       2.00147700
H        0.59964800       2.29541900      -0.87846600
