19
Extracted from Q-Chem output
C      -2.315955      0.591841     -0.093033
C      -1.220944     -0.252444      0.537759
C      -0.378924     -0.952061     -0.553575
O       0.842539     -1.403848     -0.092603
C       1.442284     -0.128203     -0.012675
C       2.396717      0.107398     -1.170787
C      -0.330101      0.442131      1.442119
H      -2.865795      0.030694     -0.851730
H      -1.877543      1.466524     -0.578774
H      -3.027635      0.939209      0.658153
H      -1.646458     -1.118175      1.071769
H      -0.891072     -1.707989     -1.160621
H       0.389248      0.348429     -0.581067
H       1.972069      0.026486      0.925615
H       3.265377     -0.548082     -1.073285
H       2.743840      1.142035     -1.160343
H       1.904343     -0.088866     -2.124443
H      -0.519187      1.479909      1.696513
H       0.224573     -0.130814      2.172419
