15
Extracted from Q-Chem output
C      -1.553614      0.296921     -0.602462
C      -0.459750     -0.761998     -0.526149
C       0.185089     -0.871637      0.848311
C       1.709824      1.838279     -0.617945
O       1.909020      2.514682     -1.544935
C       1.593395      1.197384      0.488708
C       1.112452      0.235609      1.254603
H      -2.360638      0.073869      0.099912
H      -1.986816      0.341214     -1.602592
H      -1.172331      1.290689     -0.362850
H       0.311569     -0.557438     -1.273635
H      -0.582574     -0.965846      1.625862
H      -0.882934     -1.736128     -0.784373
H       0.770277     -1.797518      0.921837
H       1.426744      0.196314      2.298475
