16
Extracted from Q-Chem output
C       2.407753     -0.307858     -0.138876
C       1.039164      0.157360      0.280738
C      -0.006542      0.114111     -0.789546
C      -1.458810      0.193019     -0.412193
C      -2.518538     -0.570914      0.263381
C      -0.977801      1.251193     -0.950890
N       0.728361      0.560498      1.443208
H       3.131649     -0.215091      0.670746
H       2.368080     -1.352712     -0.457760
H       2.757328      0.271942     -0.996786
H       0.287623     -0.453186     -1.674667
H      -3.450861     -0.007866      0.297583
H      -2.202592     -0.795606      1.283792
H      -2.693543     -1.519629     -0.247992
H      -1.058983      2.278510     -1.256506
H       1.536669      0.545531      2.060990
