13
Extracted from Q-Chem output
N      -1.003850      1.407998     -0.617950
C      -1.109145      0.305459      0.163039
O      -0.877396     -0.881828     -0.554860
C       0.401640     -1.433835     -0.229461
C       1.234521     -0.333774      0.393966
C       1.378442      0.793988     -0.354445
N       0.893047      1.681624     -0.980259
H      -1.297336      2.235660     -0.099040
H      -1.984390      0.283396      0.819815
H       0.825907     -1.833359     -1.151737
H       0.291924     -2.254046      0.487189
H      -0.189852      0.268818      0.934513
H       1.811777     -0.488889      1.295315
