15
Extracted from Q-Chem output
C      -1.617675      0.187775     -0.224336
C      -0.386571     -0.483166      1.056935
O       0.154888     -1.499882      0.361791
C       0.819613     -0.690487     -0.662148
C       1.705076      0.243736      0.179487
C       0.301696      0.790193      0.637033
C      -0.222572      0.465019     -0.782311
H      -2.151556     -0.736716     -0.439552
H      -2.311758      1.016904     -0.414247
H      -0.839112     -0.759959      2.002136
H       1.164613     -1.347188     -1.459729
H       2.387586     -0.227309      0.888709
H       2.230373      0.977704     -0.430517
H      -1.275168      0.911874      0.870550
H      -0.080847      1.169599     -1.599627
