10
Extracted from Q-Chem output
N      -1.085438      1.277591      0.396816
C      -0.151910      0.297029      0.163786
O      -0.204807     -0.006552     -1.207557
C       0.715862     -0.260631      0.993030
C       0.548156     -0.951188     -1.649665
N       1.199810     -1.785669     -2.098834
H      -1.943951      1.179263     -0.121183
H      -1.227149      1.493837      1.368411
H       0.685755     -0.015099      2.043919
H       1.470215     -0.948053      0.640700
