15
Extracted from Q-Chem output
C      -1.455826     -0.478770     -0.711836
O      -0.845615     -1.707291     -0.286670
C      -0.040514     -1.005090      0.682330
C       1.371865     -0.763186      0.238137
C       1.552599      0.490239     -0.158197
C       0.311314      1.337252     -0.035234
C      -0.757051      0.328262      0.392470
H      -1.161304     -0.207494     -1.731641
H      -2.545704     -0.534222     -0.653685
H      -0.127512     -1.468049      1.668659
H       2.127275     -1.538640      0.233111
H       2.488409      0.888178     -0.533528
H       0.449143      2.128486      0.707520
H       0.060955      1.835108     -0.977242
H      -1.428037      0.695216      1.165804
