15
Extracted from Q-Chem output
C      -1.337932     -0.010539     -0.700215
O      -0.257358     -1.758532     -0.425192
C      -0.002094     -1.054116      0.798814
C       1.115180     -0.945994     -0.116304
C       1.118513      0.366970     -0.657977
C       0.366165      1.285896      0.260930
C      -0.730947      0.291840      0.633781
H      -1.209375      0.683893     -1.518239
H      -2.199531     -0.663982     -0.764499
H      -0.030330     -1.625771      1.719763
H       1.918502     -1.666532     -0.151964
H       1.833164      0.696390     -1.399719
H       0.927802      1.682465      1.115810
H      -0.075206      2.142385     -0.263823
H      -1.431568      0.559807      1.429965
