15
Extracted from Q-Chem output
C       1.618722      0.653941     -0.379749
C       0.651013     -0.268733      0.292231
O       0.959349     -0.725344      1.498335
C      -1.084219      0.624192      0.613462
C      -1.515572     -0.468197     -0.334005
O      -0.856980     -0.350821     -1.589617
C      -0.249873     -1.135718     -0.583234
H       1.208719      1.100395     -1.282732
H       1.956340      1.416025      0.319859
H       2.479622      0.030767     -0.642638
H      -0.011699      0.114787      1.421085
H      -1.560644      0.519298      1.599642
H      -1.171738      1.648296      0.260272
H      -2.497657     -0.924324     -0.355530
H      -0.041492     -2.180449     -0.781098
