17
Extracted from Q-Chem output
C       2.108723      0.794615     -0.053103
C       1.173906     -0.372342      0.112996
O       0.241184     -0.184025      1.195069
C      -0.844712     -0.696042      0.443363
C      -2.143814      0.032257      0.703242
C      -0.701280      0.412225     -1.575474
C       0.039677     -0.619231     -0.910961
H       1.560777      1.720413     -0.230182
H       2.706176      0.921222      0.851077
H       2.786289      0.617289     -0.890986
H       1.742991     -1.296346      0.275567
H      -0.988447     -1.767223      0.627711
H      -2.065366      1.103541      0.527571
H      -2.394821     -0.121138      1.755204
H      -2.948335     -0.373391      0.091166
H      -0.423685      1.384025     -1.124463
H       0.073530     -1.574105     -1.433742
