18
Extracted from Q-Chem output
C      -2.220374     -0.635704     -1.271638
C      -1.499549      0.042185     -0.100709
C      -0.008285      0.017039     -0.183878
C       1.612549      1.577994      1.009488
N       0.660464     -1.055746      0.322053
C       1.975414     -0.972696      0.529755
O       2.527923      0.116833      0.203859
H      -1.928161     -0.179990     -2.219700
H      -1.970089     -1.697766     -1.327834
H      -3.305359     -0.549370     -1.174509
H      -1.821899      1.087257     -0.046265
H      -1.826842     -0.410571      0.842662
H       0.486110      0.510614     -1.006357
H       1.153108      2.284956      0.331778
H       0.988373      1.311421      1.855578
H       2.615508      1.860954      1.299320
H       0.147263     -1.803035      0.765167
H       2.457022     -1.750037      1.118761
