17
Extracted from Q-Chem output
C      -1.613914     -0.295610     -1.071726
C      -0.385576      0.227724      0.995019
C       0.783358     -0.707599      1.025908
O       0.474274     -2.044107      0.625478
C       1.458098      0.205429     -0.036931
C       0.276451      1.163941      0.112950
O      -0.508870      1.257753     -1.193652
H      -1.887600     -0.027333     -2.088363
H      -2.431750     -0.260328     -0.369764
H      -1.002015     -1.181630     -0.992210
H      -1.061982      0.447264      1.814820
H       1.350808     -0.751472      1.965907
H       1.256035     -2.586524      0.745383
H       2.428948      0.620259      0.238114
H       1.528524     -0.255918     -1.023415
H       0.475830      2.211019      0.358182
H      -1.131519      1.993051     -1.112511
