13
Extracted from Q-Chem output
C       0.508792     -1.467612      0.129814
C       1.063254     -0.139653     -0.479761
C       0.364744      0.997459     -0.582180
C      -1.073702      1.149343     -0.039904
N      -1.432782     -0.252420      0.039111
C      -0.592310     -0.777050      0.845798
H       1.261579     -1.964168      0.744473
H       0.161683     -2.121816     -0.669421
H       2.097260     -0.157450     -0.809167
H       0.822609      1.854399     -1.067157
H      -1.039747      1.681477      0.925457
H      -1.715169      1.701369     -0.728619
H      -0.270854     -0.243771      1.763345
