13
Extracted from Q-Chem output
C       0.528878     -1.192447      0.125404
C       1.188578     -0.117935     -0.688006
C       0.561165      1.045889     -0.610538
C      -0.687102      0.987926      0.208761
N      -1.826774     -0.319429     -0.098353
C      -0.738978     -0.521457      0.684454
H       1.183144     -1.541885      0.929315
H       0.259295     -2.059372     -0.482880
H       2.072280     -0.295018     -1.289451
H       0.858292      1.956479     -1.114433
H      -0.831080      1.648283      1.061020
H      -1.598439      1.147146     -0.450551
H      -0.869389     -0.609357      1.773021
