13
Extracted from Q-Chem output
O       2.486586      0.921613     -1.848722
C       1.900559      0.807404     -0.818031
C       1.096242     -0.435786     -0.440220
O       0.601348     -0.419470      0.898121
C      -0.708328     -0.658242      0.326240
C      -1.763425      0.334112      0.767393
C      -0.240761     -0.590298     -1.094710
H       1.885100      1.589528     -0.033812
H       1.715923     -1.314481     -0.676622
H      -1.037101     -1.690446      0.525233
H      -2.711098      0.101579      0.282135
H      -1.886530      0.276514      1.848908
H      -1.473874      1.351867      0.504775
