13
Extracted from Q-Chem output
O       2.043015      1.439354     -1.414620
C       1.589753      0.932573     -0.429229
C       0.924771     -0.419028     -0.430884
O       0.643183     -0.958363      0.871540
C      -0.725752     -1.034249      0.488293
C      -1.368872      0.326872      0.516654
C      -0.534938     -0.553927     -0.924327
H       1.612983      1.439393      0.557543
H       1.516944     -1.118819     -1.029823
H      -1.280838     -1.898883      0.832683
H      -2.452296      0.297494      0.498008
H      -0.914874      1.033649      1.201832
H      -1.164866      0.702287     -0.610574
