14
Extracted from Q-Chem output
C      -1.964605      0.483539     -0.301895
C      -0.699636      0.519477      0.516870
C      -0.087818     -0.832655      0.604602
N       0.622165     -0.241704     -0.532885
C       2.013922      0.057583     -0.164356
H      -2.756913      0.278239      0.427795
H      -2.193237      1.443211     -0.765045
H      -2.003489     -0.310133     -1.057056
H       0.224048      0.872307     -0.382648
H      -0.698420     -1.685064      0.309844
H       0.539959     -1.051170      1.466818
H       2.086843      0.586763      0.792254
H       2.547236     -0.890816     -0.087151
H       2.473286      0.658740     -0.949017
