13
Extracted from Q-Chem output
N      -1.370289      0.845556     -0.251132
C      -0.875806     -0.061929      0.869752
C      -0.190037     -1.104673      0.164152
O      -0.578913     -2.355690      0.128064
N       0.904034     -0.758005     -0.476333
C       1.109723      0.692305     -0.413730
C      -0.104501      1.128764      0.389247
H       1.156809      1.115826     -1.419663
H      -2.093331      1.435099      0.143895
H      -1.374348     -2.391412      0.678905
H       1.474411     -1.397870     -1.004296
H       2.037511      0.915182      0.117780
H      -0.000067      2.006835      1.016164
