13
Extracted from Q-Chem output
N      -1.046549      1.011181     -0.389381
C      -0.945933     -0.046484      0.709068
C      -0.144234     -1.135875      0.125841
O      -0.538929     -2.392566      0.116529
N       1.003371     -0.779793     -0.348724
C       1.174275      0.679353     -0.322883
C       0.042041      1.085490      0.609800
H      -0.054469      1.000246     -1.144536
H      -1.891238      1.559678     -0.320735
H      -1.397569     -2.388944      0.562990
H       1.610790     -1.401265     -0.860852
H       2.197599      0.956391     -0.089466
H       0.086044      1.922576      1.295156
