11
Extracted from Q-Chem output
C       2.963609     -0.376616     -0.043333
C       1.789944     -0.141852     -0.007291
C       0.382725      0.090113      0.023236
C      -0.642973     -0.843934     -0.246066
C      -1.802161     -0.134643     -0.083060
N      -1.433994      1.118156      0.256686
N      -0.117133      1.282193      0.328448
H       4.008562     -0.575327     -0.073230
H      -0.531517     -1.879484     -0.517629
H      -2.837685     -0.417763     -0.181116
H      -2.031820      1.900484      0.451897
