14
Extracted from Q-Chem output
C      -1.176630     -1.037815      0.304758
N      -0.222626     -0.056370     -0.173366
C      -0.680270      1.311034     -0.230751
C       1.124221     -0.279028     -0.098206
O       1.420829     -1.589415      0.036213
N       2.084343      0.554032     -0.165468
H      -0.778163     -2.038966      0.177680
H      -1.419507     -0.889158      1.364039
H      -2.097691     -0.955757     -0.274804
H      -0.155509      1.858688     -1.014737
H      -1.740910      1.315227     -0.479498
H      -0.548823      1.842682      0.720454
H       2.383332     -1.618979      0.061605
H       1.777249      1.514201     -0.226266
