12
Extracted from Q-Chem output
C      -2.637031     -0.172702      0.388751
C      -1.212569      0.077271      0.214046
C      -0.039569      0.272573      0.063627
C       1.367540      0.540763     -0.121841
C       2.394011     -0.260660      0.548712
O       2.132975     -0.424883     -0.830381
H      -3.079879     -0.532358     -0.541194
H      -2.808867     -0.923829      1.160938
H      -3.155014      0.741735      0.681371
H       1.609358      1.569550     -0.375138
H       2.080693     -1.083866      1.183458
H       3.348350      0.196408      0.794748
