10
Extracted from Q-Chem output
O      -2.324998      0.794031     -0.052475
C      -1.787846     -0.436279     -0.059995
O      -0.538138     -0.577845      0.128950
C       0.383770      0.367863      0.246980
C       1.700190     -0.054578      0.445579
C       2.847373     -0.384176      0.615515
H      -2.386088     -1.333866     -0.058248
H      -2.497933      1.120103     -0.942797
H       0.062469      1.395419      0.218702
H       3.857792     -0.677782      0.769942
