13
Extracted from Q-Chem output
C       0.601587      0.569700      1.169686
O       0.426562     -0.796192      1.332975
C      -0.023116     -1.428003      0.301560
C      -0.717103     -0.644725     -0.752357
O      -1.526241      0.354375     -0.097250
C      -0.298269      1.109961      0.048560
C       0.408426      0.309987     -1.045813
H       1.411449      0.384849      0.049803
H       0.690490      1.038413      2.146226
H       0.146460     -2.497782      0.305167
H      -1.234776     -1.235671     -1.505606
H      -0.428819      2.191983      0.036247
H       0.624833      0.639364     -2.053554
