15
Extracted from Q-Chem output
O       2.315494      1.024479      0.290826
C       2.041816     -0.150962     -0.452390
C       0.659644     -0.422303     -0.807162
C      -0.308509      0.535806     -0.275904
C      -1.775226      0.123552     -0.364766
C      -2.063504     -1.063784      0.513532
O      -3.013603     -1.165655      1.239281
H       3.255683      1.074450      0.469999
H       2.298578     -1.069883      0.110966
H       2.648178     -0.207113     -1.367291
H      -1.312731     -1.880539      0.441053
H      -0.040257      0.955041      0.701971
H      -0.112309      1.377179     -0.971263
H      -1.989511     -0.187992     -1.392458
H      -2.454319      0.934188     -0.098328
