12
Extracted from Q-Chem output
C      -1.958589      0.859247     -0.280315
C      -0.739289      0.071435      0.052959
N       0.200471     -0.088299     -0.772195
C       1.328960     -0.889042     -0.342623
C       2.577191     -0.123848     -0.433305
N       3.561143      0.461737     -0.484952
H      -1.884902      1.265943     -1.286828
H      -2.847121      0.227252     -0.206203
H      -2.086532      1.674641      0.435568
H      -0.694405     -0.370072      1.059852
H       1.423531     -1.751009     -1.007850
H       1.234866     -1.266153      0.685156
