10
Extracted from Q-Chem output
O      -1.626173     -0.839559      0.146624
C      -0.441122     -0.347997      0.342145
C      -0.144068      1.105275      0.259863
O       1.231444      0.917523     -0.007490
C       1.173277     -0.491163     -0.283567
O       2.091486     -1.253351     -0.146592
H      -1.621078     -1.789701      0.322376
H       0.490367     -0.555799     -1.217238
H      -0.281834      1.547487      1.253607
H      -0.670507      1.707075     -0.486075
