14
Extracted from Q-Chem output
C      -1.571343     -0.346966      0.463031
C      -1.402276      0.314307     -0.864784
C       2.089186      1.709294      1.103138
O       1.180721      0.937094      0.594344
C       1.519582     -0.330538      0.025427
N       0.707533     -1.119674     -0.464404
C      -0.701242     -0.989787     -0.585532
H      -1.080097      0.108884      1.310525
H      -2.505822     -0.843324      0.687646
H      -2.218463      0.281400     -1.573887
H      -0.801154      1.211231     -0.899418
H       3.071588      1.171135      0.985626
H       2.595509     -0.507072      0.083374
H      -1.125200     -1.858200     -1.071097
