15
Extracted from Q-Chem output
C      -1.454021      0.798542     -0.630738
C       0.056025      0.347632      0.559817
C       1.259094      0.412471     -0.381490
C       2.463022      0.167333      0.408110
N       3.396007     -0.037246      1.043170
C      -0.220885     -1.052329      0.936716
N      -1.042824     -0.935954     -0.255826
H      -0.778641      1.547736     -1.032376
H      -2.020504      0.414746     -1.482067
H      -2.111436      1.246383      0.106254
H       1.346376      1.399398     -0.843986
H       1.220376     -0.336548     -1.181641
H      -0.746021     -1.203463      1.877793
H       0.579280     -1.775660      0.786449
H      -2.005997     -1.029133      0.053742
