13
Extracted from Q-Chem output
C       2.706097      0.345153      0.201889
C       1.532449      0.260454     -0.017199
C       0.125089      0.102624     -0.290587
C      -0.655156      1.197614     -0.878670
C      -0.968224      0.415483      0.743501
O      -1.568628     -0.846009      0.608996
C      -0.514304     -1.304450     -0.265979
H       3.749438      0.439154      0.390660
H      -1.511250      0.763976     -1.416747
H      -1.556588      1.336906      0.329933
H      -0.664891      0.748164      1.733228
H       0.096270     -2.055071      0.236731
H      -0.894435     -1.680526     -1.216731
