11
Extracted from Q-Chem output
C       1.797190      0.687249      0.264621
N      -0.480261     -0.528046     -0.427681
C      -0.530634      0.483799      0.338464
O       0.527773      1.167669      0.713219
C      -1.684313     -1.197797     -0.651478
O      -2.560190     -1.355180      0.157542
H       1.831956      0.677605     -0.824640
H       1.971129     -0.322878      0.635105
H       2.531041      1.378425      0.669433
H      -1.449913      0.903290      0.748098
H      -1.745132     -1.623147     -1.665735
