12
Extracted from Q-Chem output
C      -1.994311     -0.251605     -0.975343
N      -0.758174     -0.671974     -1.324127
C      -0.036658      0.111415     -0.488887
N       1.040192     -0.424543      0.210467
C       2.097694      0.308577      0.677023
O       3.005279     -0.144379      1.320454
H      -1.296338      0.704915     -0.037481
H      -2.767898     -0.152851     -1.743250
H      -2.386805     -0.531100     -0.000918
H       0.133227      1.134974     -0.808978
H       1.024134     -1.409498      0.428146
H       2.026670      1.375765      0.399583
