10
Extracted from Q-Chem output
C       2.351255     -0.301934     -0.389092
C       1.231363     -0.239098      0.022228
C      -0.135849     -0.141769      0.509834
C      -0.960637      0.962578     -0.061826
N      -2.031360      0.518444     -0.572179
N      -1.991097     -0.927709     -0.400300
N      -0.967944     -1.305572      0.161799
H       3.348281     -0.367308     -0.757496
H      -0.712882      2.015337     -0.046301
H      -0.136908     -0.084373      1.606428
