13
Extracted from Q-Chem output
C      -0.093519     -1.028628      1.009430
C      -1.074780     -0.411358     -0.019723
C       0.105031      1.639106     -1.124372
C       0.053892      0.493566     -0.471091
C       1.080790     -0.340934      0.267131
H      -0.066818     -2.115735      1.073791
H      -0.239256     -0.619888      2.009219
H      -1.363208     -1.124628     -0.795403
H      -1.974664      0.070003      0.364157
H      -0.790392      2.099743     -1.525841
H       1.044767      2.157618     -1.277479
H       1.608692     -1.026530     -0.400056
H       1.815935      0.195383      0.867714
