13
Extracted from Q-Chem output
C      -0.146697     -0.762636      0.805888
C      -1.235869     -0.148086     -0.094804
C      -0.512756      0.985452     -0.773568
C       0.800380      0.904914     -0.610999
C       1.194810     -0.297308      0.206313
H      -0.223202     -1.847680      0.882239
H      -0.246613     -0.358940      1.815757
H      -1.601075     -0.863862     -0.840130
H      -2.108964      0.183089      0.472104
H      -1.021017      1.744761     -1.355672
H       1.522095      1.588799     -1.041317
H       1.641380     -1.062627     -0.438869
H       1.937528     -0.065876      0.973058
