13
Extracted from Q-Chem output
C      -1.891656      0.591369      0.055846
N      -0.598602      0.325264      0.013147
C      -0.106463     -1.076432      0.055608
C       1.384814     -0.939841     -0.012200
C       1.666327      0.370103     -0.084703
C       0.464286      1.145395     -0.069210
H      -2.216741      1.618285      0.023824
H      -0.534770     -1.616498     -0.789930
H      -2.586483     -0.228158      0.126574
H      -0.462528     -1.537398      0.978002
H       2.064807     -1.775573     -0.002795
H       2.653194      0.806938     -0.145936
H       0.334748      2.213534     -0.112838
