11
Extracted from Q-Chem output
O      -1.984352      0.030465     -0.289649
C      -1.544610      0.425274      0.764083
N      -0.233416      0.707617      0.991381
C       0.758583      0.364301      0.031978
C       1.666964     -0.955187      0.660038
C       1.057292     -1.461804     -0.303243
H      -2.180527      0.610308      1.645258
H       0.067262      0.828220      1.944427
H       0.262595      0.336997     -0.942697
H       1.553588      1.098568     -0.036216
H       0.521606     -1.962558     -1.084183
