11
Extracted from Q-Chem output
C      -1.090912     -0.963472      0.080965
C      -0.052159     -0.119681      0.695002
C       1.316811     -0.232914      0.023567
O       0.819219      0.458746     -1.150259
C      -0.438231      0.654709     -0.556728
H      -2.046308     -0.617604      0.515640
H      -1.211113     -0.049942     -1.103198
H      -0.169954      0.330711      1.673870
H       1.645980     -1.244938     -0.212872
H       2.116251      0.344528      0.492957
H      -0.850555      1.658457     -0.503704
