14
smiles: [C:1]1([H:8])=[C:2]([H:10])[O:3][C:4]([H:11])([H:12])[O:5][C:6]1([H:13])[H:14].[H:7][H:9]
C        0.42227900       0.48954000      -0.36557900
C        0.49149300      -0.77874900       0.01967300
O       -0.55620800      -1.44902200       0.56145300
C       -1.77890400      -0.77045100       0.35551900
O       -1.71158300       0.56404400       0.72613400
C       -0.81621000       1.29071500      -0.10213000
H        3.73001800       0.01793800       0.27794800
H        1.28060500       0.96297500      -0.82177000
H        4.18079200      -0.39015500      -0.15174500
H        1.37972600      -1.39256700      -0.05755500
H       -2.51871500      -1.25707700       0.98641900
H       -2.04231200      -0.86548100      -0.70883300
H       -0.57609800       2.20243100       0.44807100
H       -1.31791800       1.58779600      -1.03395200
