14
Extracted from Q-Chem output
C       0.743304      0.525006     -0.275879
C       0.853769     -0.729715      0.426139
O      -0.282120     -1.415801      0.686550
C      -1.406678     -0.823986      0.049145
O      -1.569952      0.478274      0.486648
C      -0.497360      1.341990      0.071626
H       2.195406      0.239251     -0.293885
H       0.926903      0.520038     -1.340219
H       2.232178     -0.757499     -0.391383
H       1.562038     -0.922463      1.215766
H      -2.276699     -1.398243      0.356729
H      -1.265921     -0.877462     -1.039711
H      -0.322313      2.018352      0.910019
H      -0.824808      1.938624     -0.786311
