14
Extracted from Q-Chem output
C      -1.730030      0.239024      0.180731
C      -0.399142      0.793562     -0.461441
C       1.031463      0.777067     -0.149169
C       1.298594     -0.240186      0.819798
C       0.245095     -1.092980      0.794545
C      -0.647474     -0.652275     -0.247852
H      -1.987622      0.278114      1.234447
H      -2.541613      0.501561     -0.487240
H      -0.640533      1.172878     -1.445896
H       1.705376      1.598784     -0.360568
H       1.121216     -0.265066     -1.385095
H       2.214695     -0.335162      1.386622
H       0.102382     -1.988679      1.382831
H       0.249900     -0.881589     -1.380820
