12
Extracted from Q-Chem output
C      -1.803751     -0.444632      0.006764
C      -0.402516      0.012813      0.114676
O       0.585688     -0.890187     -0.237120
C       0.156747      1.168951      0.437312
C       1.783740     -0.287925      0.213178
O       1.531736      1.098379      0.308014
H      -2.486635      0.365465      0.258481
H      -2.015483     -0.775635     -1.012461
H      -1.992846     -1.285346      0.677087
H      -0.270570      2.114897      0.720263
H       2.584419     -0.474536     -0.501710
H       2.036292     -0.683906      1.210111
