12
Extracted from Q-Chem output
C      -1.864742     -0.396442     -0.027523
C      -0.359290     -0.312468     -0.125239
O       0.268891     -1.113573     -0.812811
C       0.268689      0.754571      0.587734
C       2.121142      0.128655      0.326808
O       1.475046      1.229749      0.054737
H      -2.297877      0.060586     -0.919881
H      -2.170228     -1.441135      0.000131
H      -2.253525      0.125161      0.847512
H      -0.247284      1.463250      1.221481
H       2.698285     -0.334779     -0.465381
H       2.203590     -0.196077      1.355592
