15
Extracted from Q-Chem output
C      -1.933256     -0.750838     -0.123921
C      -0.647796     -0.766421      0.708226
C       0.354182      0.193072      0.216712
C       0.406422      1.660899     -0.060024
O       1.772274      1.515755     -0.489649
C       1.651898      0.121102     -0.208696
C       2.527580     -0.943698     -0.336946
H      -2.646941     -1.474693      0.269854
H      -1.725920     -1.011147     -1.162767
H      -2.408877      0.231588     -0.107489
H      -0.886217     -0.513046      1.747512
H      -0.190122     -1.756919      0.711248
H      -0.242871      2.012532     -0.865621
H       0.314566      2.310475      0.813903
H       3.490575     -0.584536     -0.734165
