14
Extracted from Q-Chem output
N       2.221633     -0.438867      0.732764
C       1.449687     -0.616620     -0.237589
O       1.213417     -1.550635     -1.029718
C      -0.594039     -0.428710     -0.955137
C      -1.319493     -0.444144      0.354661
C      -0.583692      0.885735      0.694551
C       0.243249      0.640677     -0.570809
H       2.287298      0.505163      1.085069
H      -0.832067     -0.901269     -1.896860
H      -1.067442     -1.293065      0.991094
H      -2.405331     -0.398486      0.249438
H      -0.038057      0.915559      1.636945
H      -1.244849      1.749226      0.625525
H       0.711026      1.369176     -1.224506
