21
Extracted from Q-Chem output
C       1.700939     -1.171219      1.137497
C       1.241567     -0.402756     -0.102145
C       0.248558      0.657496      0.330444
C       0.282737      1.975025     -1.047118
C      -1.096379      0.761461     -0.933333
C      -1.177436      0.213133      0.436500
C      -1.577973     -1.244264      0.568828
H       2.477492     -1.891949      0.874697
H       2.104876     -0.484049      1.882311
H       0.882033     -1.720793      1.602897
H       2.117402      0.084042     -0.542945
H       0.886745     -1.120209     -0.857600
H       0.086252      2.053580     -2.127887
H       1.365050      1.910115     -0.976625
H      -0.054668      2.885607     -0.562700
H      -1.808293      1.539055     -1.179306
H      -0.956100      0.030090     -1.721200
H      -1.762333      0.837971      1.112972
H      -1.428845     -1.596364      1.591282
H      -1.011360     -1.895151     -0.097889
H      -2.637143     -1.369590      0.332141
