13
Extracted from Q-Chem output
C       2.098833     -0.000619     -0.066677
C       0.549853     -0.457346     -0.164421
C       0.315355      0.863408     -0.332289
C      -3.169909      1.009050      0.158646
C      -2.584204     -0.028630      0.047426
N       0.116546     -1.641167     -0.183910
H       2.441807     -0.473347      0.852969
H       2.577689     -0.396643     -0.957333
H       2.328654      1.066335     -0.018540
H       0.202235      1.451032      0.579872
H      -3.701071      1.927558      0.246887
H      -2.033789     -0.945155     -0.051112
H       0.851659     -2.334174     -0.106269
