13
Extracted from Q-Chem output
C      -1.552069     -0.076306      0.108697
N      -1.092647      0.748801      1.110585
C      -0.493503     -0.393358     -0.865282
C       0.924291     -0.451878     -0.583901
C       1.714175      0.478157      0.257730
O       1.331402     -0.790579      0.734208
H      -2.248879     -0.903630      0.316609
H      -2.093577      0.601856     -0.606313
H      -1.283379      0.338578      2.022935
H      -0.752551     -0.398663     -1.921371
H       1.484480     -0.962267     -1.367356
H       2.773256      0.585274      0.035617
H       1.179215      1.310240      0.701847
