12
Extracted from Q-Chem output
C      -1.520898      0.365007      0.179608
O      -2.189514     -0.206451     -0.917564
C       0.869575     -0.219764     -0.793144
C       1.888216      0.080042      0.271791
O       0.785165      0.518858      1.129659
C      -0.046557      0.205677      0.076553
H      -1.854223     -0.056180      1.137383
H      -1.777316      1.426797      0.188943
H       0.883494     -0.582775     -1.804892
H       2.401011     -0.766200      0.729961
H       2.577860      0.904524      0.088426
H      -1.953244     -1.135434     -0.965116
