11
Extracted from Q-Chem output
O      -1.758397     -1.140808      1.248406
C      -1.620170     -0.441676      0.293327
C      -0.309547     -0.235966     -0.457984
C       0.254382      1.140675     -0.218754
N       1.445786      1.071110      0.230465
C       1.702250     -0.328006      0.297071
N       0.766512     -1.108578     -0.068523
H      -2.464864      0.143622     -0.125415
H      -0.256568      2.082550     -0.385661
H       2.665601     -0.675346      0.649325
H      -0.536166     -0.371257     -1.524521
