12
Extracted from Q-Chem output
C      -0.702923      0.707888      0.009907
C      -0.496255     -0.678517      0.626331
N      -0.316736     -1.666812     -0.400774
C       0.835603     -0.842714     -0.054989
C       0.674936      0.521112     -0.647355
N       1.481374      1.234579     -1.293606
H      -0.675259      1.528701      0.728663
H       1.070851      2.138620     -1.521567
H      -1.576565      0.819141     -0.636116
H      -0.786245     -0.997370      1.617404
H      -0.738845     -1.409598     -1.286397
H       1.749485     -1.323288      0.263983
