12
Extracted from Q-Chem output
C      -0.783792      0.834796     -0.039139
C      -0.472870     -0.525377      0.522502
N      -0.353500     -1.570308     -0.463679
C       0.856213     -0.867577     -0.075709
C       1.065025      0.389749     -0.810075
N       1.673821      1.247262     -1.399096
H      -0.726031      1.628660      0.708648
H       0.475047      1.516227     -0.974591
H      -1.726753      0.890523     -0.585646
H      -0.742270     -0.845003      1.522140
H      -0.696712     -1.276032     -1.371755
H       1.692148     -1.426426      0.324762
