17
Extracted from Q-Chem output
C       2.204210      0.867090      0.554425
O       0.989811      0.204609      0.775226
C      -0.247905     -1.782745     -1.014671
C      -1.457408     -1.108143     -0.452070
C      -1.368925      0.098624      0.470496
C      -0.118701      0.931343      0.298933
C      -0.930138     -1.086733     -1.856360
H       2.228697      1.841149      1.061746
H       2.383100      1.030293     -0.516959
H       3.000894      0.241112      0.954904
H       0.605128     -2.398158     -0.792085
H      -2.333147     -1.725946     -0.243670
H      -2.238409      0.743730      0.304332
H      -1.420710     -0.234795      1.511527
H       0.031142      1.184766     -0.762468
H      -0.208159      1.878128      0.850746
H      -1.054257     -0.707356     -2.855751
