17
Extracted from Q-Chem output
C       2.104136      0.386894      0.107928
O       0.859291     -0.109244      0.582577
C       0.279220     -1.071752     -0.342047
C      -1.208702     -0.959326     -0.377165
C      -1.708645      0.176012      0.472485
C      -0.623735      1.202966      0.286058
C      -0.311428     -0.423276     -1.482280
H       2.409000      1.201221      0.763915
H       1.983214      0.735674     -0.922783
H       2.851425     -0.407869      0.147167
H       0.802149     -2.021235     -0.294409
H      -1.787346     -1.879391     -0.431931
H      -2.656139      0.589131      0.102635
H      -1.831728     -0.088162      1.525754
H      -0.655199      1.823304     -0.593061
H      -0.201011      1.677914      1.164553
H      -0.287882     -0.840009     -2.481891
