13
smiles: [C:4](=[C:5]=[N:6][H:9])([H:12])[H:13].[O:1]([C:2](=[C:3]([H:10])[H:11])[H:8])[H:7]
O        1.75593200      -0.01801700       0.80752900
C        1.91538500       0.08131500      -0.53875700
C        1.28679500      -0.71318900      -1.38837600
C       -2.55742100      -0.30287900       1.28126300
C       -1.84160600       0.50239100       0.54501800
N       -1.23123200       1.33353000      -0.10231100
H        2.29208800       0.64118500       1.24768800
H        2.59611500       0.85832200      -0.87692300
H       -0.50198300       0.97354700      -0.71066700
H        0.61016300      -1.48434400      -1.04385800
H        1.44632900      -0.59426800      -2.44987500
H       -2.23397000      -0.55586100       2.28034700
H       -3.47187900      -0.72369900       0.88938000
