16
Extracted from Q-Chem output
C      -1.464193      0.991660     -0.768576
C      -0.235645      0.250384     -0.327914
C       0.231681     -1.009247     -0.799840
C      -0.786718     -1.026466      0.810077
C       1.632971     -0.989317     -0.378970
C       1.946045      0.218150      0.148541
N       0.829953      1.012153      0.160721
H      -2.183404      0.291340     -1.187789
H      -1.195777      1.707894     -1.546343
H      -1.933808      1.537801      0.054664
H      -1.859949     -1.032682      0.656304
H      -0.502891     -0.496937      1.722621
H      -0.446934     -2.051798      0.889454
H       2.335368     -1.796742     -0.526012
H       2.887920      0.599707      0.519696
H       0.760522      1.901879      0.620160
