16
Extracted from Q-Chem output
C       1.018709      1.294854      0.637142
C       0.307600      0.123891     -0.025171
C       1.259237     -0.858734     -0.680099
C      -1.416607     -1.136734      1.036578
O      -2.289118     -0.235755      0.497692
C      -1.903113      0.404051     -0.641964
N      -0.696700      0.597557     -0.921361
H       1.521363      1.894835     -0.123614
H       1.761964      0.937555      1.350868
H       0.306387      1.930311      1.163581
H       1.951314     -1.266967      0.057193
H       0.720503     -1.680555     -1.150752
H       1.837436     -0.346032     -1.451326
H      -1.163310     -1.836400      0.209258
H      -0.175984     -0.434160      0.925482
H      -2.728379      0.795242     -1.225793
