11
smiles: [C-:1]1=[O+:5][C:4]([H:10])([H:11])[O:3][C:2]1([H:8])[H:9].[H:6][H:7]
C        0.38099700       0.34184000       0.95413400
C        0.82180900      -0.80664600       0.10018400
O       -0.28306200      -1.16032200      -0.73219600
C       -1.39954600      -0.57273100      -0.18474900
O       -0.88762400       0.44823600       0.74179200
H        1.36252200       3.02386800      -0.85987300
H        1.33579800       2.67317500      -0.20358900
H        1.67843500      -0.53849200      -0.52041000
H        1.11746500      -1.63028800       0.76535900
H       -2.00084200      -0.07073200      -0.94308500
H       -2.00438100      -1.25835100       0.41907700
