17
Extracted from Q-Chem output
C      -2.097699     -0.270037      0.052983
C      -1.093711      0.767897     -0.379419
C      -0.121408      1.359025      0.599630
C       0.374882      0.472312     -0.504487
C       0.946241     -0.883762     -0.200769
C       2.436590     -0.887099      0.014260
O       3.152061      0.069900     -0.089711
H      -3.003980      0.206310      0.432475
H      -1.711162     -0.905830      0.851467
H      -2.385273     -0.918473     -0.778306
H      -1.473464      1.457498     -1.125767
H       0.101773      2.416311      0.553138
H      -0.120442      0.947288      1.602850
H       0.887482      0.980579     -1.312547
H       0.747058     -1.600877     -1.008407
H       0.498286     -1.332581      0.692273
H       2.862766     -1.878462      0.280581
