17
Extracted from Q-Chem output
C      -1.991824     -0.252786      0.132214
C      -0.991631      0.675411     -0.533524
C      -0.057684      1.465286      0.390433
C       0.357165      0.272190     -0.972927
C       0.910454     -0.975576     -0.332614
C       2.372496     -0.909460      0.023748
O       2.964492      0.108626      0.256482
H      -2.836030      0.315299      0.527347
H      -1.562301     -0.815797      0.961259
H      -2.386808     -0.968058     -0.592352
H      -1.489084      1.328480     -1.248491
H      -0.126920      2.541932      0.275194
H      -0.060880      1.114138      1.418013
H       1.008088      1.291865     -0.056449
H       0.778733     -1.759878     -1.087191
H       0.414805     -1.364738      0.574389
H       2.886511     -1.888072      0.114536
