11
Extracted from Q-Chem output
C       1.490976      0.059333      1.084200
C       0.595424      0.050172      0.127731
C       0.056384      0.584980     -1.110425
C      -0.646475     -0.569251     -0.373425
C      -1.894074     -0.312327      0.298204
N      -2.889222     -0.107499      0.832544
H       2.325082      0.749996      1.060530
H      -0.433818      1.550915     -1.086516
H       0.531274      0.331253     -2.050533
H      -0.579101     -1.552174     -0.825274
H       1.417456     -0.619717      1.924582
