17
smiles: [C:1]1([H:8])([H:9])[C:2]([H:10])([H:11])[C:3]12[C:4]([H:13])=[C:5]([H:14])[C:6]([H:15])=[C:7]2[H:17].[H:12][H:16]
C       -1.45859300      -0.62185600       1.24833900
C       -1.73988000       0.07392000      -0.02745800
C       -0.29661800      -0.17403600       0.37786000
C        0.60599200       0.92234000       0.77451800
C        1.84331200       0.63415700       0.34059900
C        1.81691100      -0.65282600      -0.35556700
C        0.56387400      -1.13417000      -0.33755500
H       -1.63564000      -1.68716100       1.30863300
H       -1.60336900      -0.08411600       2.17547700
H       -2.08310800       1.09906300       0.00590100
H       -2.11403600      -0.50319400      -0.86213100
H        0.16646800       0.92775200      -2.32971500
H        0.29156500       1.79973800       1.32312500
H        2.72519700       1.24508600       0.47603300
H        2.67714900      -1.12778300      -0.80683900
H       -0.03636600       1.41367600      -2.85611100
H        0.21155700      -2.06333100      -0.76459100
