11
Extracted from Q-Chem output
O      -0.539115      1.219464      1.025159
C       0.263803      0.358835     -0.149983
C       1.065023     -0.862757      0.194244
O       0.523208     -1.480166     -0.936047
C      -0.855941     -0.374183     -0.730925
N      -2.033564     -0.402890     -0.779270
H      -0.488540      2.174555      0.896119
H       0.745561      1.130986     -0.745235
H       2.149298     -0.723347      0.148593
H       0.779074     -1.310946      1.155840
H      -1.446359      0.910456      0.736203
