13
Extracted from Q-Chem output
O      -2.327856     -0.572054      0.462709
C      -1.311818      0.060491     -0.281228
C      -0.216233      0.819057      0.518072
N       0.778440     -0.056928     -0.136729
C       2.080160      0.014482     -0.059816
C      -0.171226     -0.758832     -0.778320
H      -1.938764     -1.350287      0.871071
H      -1.837059      0.694275     -1.000878
H      -0.252527      0.664889      1.595763
H      -0.050789      1.868727      0.275808
H       2.512487      0.732007      0.617699
H       2.683065     -0.648727     -0.659944
H      -0.009681     -1.500359     -1.545533
