13
Extracted from Q-Chem output
O      -1.177560     -0.840299      0.971868
C      -1.082598      0.042132     -0.145056
C      -0.166235      1.210694      0.224867
N       1.011276      0.703053     -0.493496
C       1.649450     -0.240062      0.093457
C      -0.267411     -0.349938     -1.350231
H      -1.407804     -1.712786      0.646109
H      -2.085194      0.364640     -0.448344
H      -0.018055      1.337739      1.299579
H      -0.489093      2.140023     -0.237378
H       1.510481     -0.489180      1.147398
H       2.391693     -0.790608     -0.479653
H       0.093876     -1.392022     -1.297780
