14
smiles: [C:1]([C@@:2]1([C:5]#[O+:6])[C:3]([H:10])([H:11])[C-:4]1[H:13])([H:7])([H:8])[H:9].[H:12][H:14]
C        1.42024400       0.14304500       0.62774200
C        0.23345400       0.03932500      -0.29616400
C       -0.11176300      -1.22864400      -1.15081000
C       -0.99301000      -0.91060300      -0.03520700
C       -0.24047400       1.11912900      -0.96700700
O       -0.72414800       2.01707200      -1.48748100
H        1.51791200      -0.82267300       1.12206300
H        2.34392600       0.37600100       0.09526900
H        1.24894400       0.89370100       1.39983900
H       -0.35499100      -1.07858200      -2.20494400
H        0.67742400      -1.96227000      -0.99945200
H       -1.43266100       0.64361800       2.10370500
H       -1.94680100      -0.47023700      -0.33819200
H       -1.47437600       1.30687700       2.43949400
