19
Extracted from Q-Chem output
C      -1.579042     -0.611029     -0.708604
C      -1.030600      0.346559      0.343759
C      -2.092192      0.709914      1.377467
C       0.182802     -0.225598      1.054211
O       1.239076     -0.512222      0.115732
C       2.173015      0.381068      0.005912
C       3.144178     -0.085462     -1.028693
H      -2.426419     -0.163842     -1.231854
H      -0.821441     -0.868418     -1.449432
H      -1.926473     -1.539317     -0.245580
H      -0.696825      1.265320     -0.152120
H      -2.432440     -0.177894      1.918527
H      -2.964316      1.154179      0.894995
H      -1.714065      1.426382      2.109634
H      -0.053518     -1.180202      1.531310
H       0.578983      0.473987      1.791115
H       2.896540     -1.039723     -1.504435
H       4.126233     -0.142404     -0.550002
H       3.236168      0.704927     -1.778792
