19
Extracted from Q-Chem output
C      -1.672871     -0.982059     -0.611820
C      -0.731676      0.046522      0.013403
C      -1.482156      1.034770      0.901216
C       0.327486     -0.669505      0.818205
O       1.243479     -1.477350      0.144788
C       2.134249     -0.465337      0.617717
C       2.418425      0.529477     -0.479874
H      -2.426125     -0.485847     -1.226783
H      -1.122619     -1.682816     -1.240152
H      -2.195747     -1.553798      0.159989
H      -0.247023      0.596048     -0.795708
H      -1.960122      0.524271      1.741983
H      -2.265735      1.542383      0.336795
H      -0.814672      1.798336      1.306803
H      -0.063007     -1.178388      1.706226
H       1.110250      0.069552      1.405164
H       1.687373      0.600585     -1.289456
H       3.351422      0.154380     -0.913367
H       2.641579      1.514090     -0.066761
