15
Extracted from Q-Chem output
C      -1.089978      1.253842     -0.496603
C      -0.179243      0.162681      0.050777
C      -0.951901     -0.878889      0.846463
C       0.790048     -0.381627     -0.895009
C       2.415609     -0.648688      0.344804
O       3.346326     -0.288309      0.887619
O       0.923116      0.699685      0.727922
H      -0.515992      1.971573     -1.083039
H      -1.897766      0.848598     -1.110651
H      -1.527981      1.783933      0.351108
H      -0.282568     -1.658746      1.212424
H      -1.416546     -0.399895      1.709137
H      -1.737349     -1.340689      0.242273
H       0.854811     -1.426566     -1.167133
H       1.220709      0.316313     -1.602010
