15
Extracted from Q-Chem output
C      -1.920811      0.043651      0.653517
C      -0.843367      0.050943     -0.375794
O      -0.079045      1.215722     -0.454187
C       1.215806      1.059743     -0.801186
C       1.854360     -0.069325     -1.092290
O       0.168666     -0.417018      1.856117
C      -0.705563     -0.808547      0.851711
H      -1.968165      0.923981      1.281033
H      -2.867671     -0.421681      0.416826
H      -1.008339     -0.431228     -1.335173
H       1.058000     -0.391720      1.490416
H       1.713726      2.022282     -0.819684
H       1.372387     -1.037360     -1.096650
H       2.900364     -0.020105     -1.357731
H      -0.807717     -1.882874      0.717512
