17
Extracted from Q-Chem output
C       2.282774     -0.560776     -0.550544
C       0.961847     -0.487078      0.166138
C       0.637129      0.662279      1.070471
C      -1.494394      0.136617     -0.335360
O      -1.776648     -0.312785     -1.590323
C      -2.390447      0.191646      0.645892
C      -0.070782      0.529918     -0.242234
H       3.051643     -1.002848      0.087144
H       2.624402      0.435509     -0.841031
H       2.206734     -1.164239     -1.457358
H       0.551119     -1.441635      0.477827
H       1.364900      1.458924      1.161397
H       0.083716      0.457613      1.976958
H      -2.710061     -0.532232     -1.644572
H      -3.410009     -0.148276      0.504666
H      -2.123490      0.586698      1.613813
H       0.234199      1.208435     -1.032403
