17
Extracted from Q-Chem output
C       2.346685      0.033613     -0.305927
C       1.001148     -0.651706     -0.213153
C       0.050869     -0.243591      0.899211
C      -1.306361     -0.138788     -0.058837
O      -2.065731     -1.307441     -0.096992
C      -1.956309      1.087597      0.065972
C      -0.127629     -0.116138     -1.018810
H       3.039400     -0.335531      0.453019
H       2.241103      1.113705     -0.174609
H       2.801510     -0.139748     -1.283729
H       1.094703     -1.736743     -0.290580
H       0.290178      0.706806      1.363526
H      -0.208337     -1.014336      1.621760
H      -2.778424     -1.193980      0.539582
H      -2.958135      1.229507     -0.324280
H      -1.434745      1.946392      0.459779
H      -0.011200      0.772887     -1.636231
