10
Extracted from Q-Chem output
C      -1.176939      0.066589     -0.012510
C       0.291515     -0.203387      0.227916
O       0.695315     -1.227945     -0.628398
C       1.710290      1.939474     -0.185833
N       1.066814      0.985839     -0.006449
H      -1.331581      0.343051     -1.055057
H      -1.523977      0.874659      0.629957
H      -1.745098     -0.837006      0.204426
H       0.467504     -0.472762      1.275327
H       1.618459     -1.435030     -0.464666
