10
Extracted from Q-Chem output
C      -1.149972      0.053675      0.009977
C       0.312475     -0.227291      0.199402
O       0.751058     -1.130034     -0.693712
C       1.657520      1.097659      0.165674
N       0.782591      1.709004     -0.328127
H      -1.368465      0.316516     -1.021646
H      -1.481586      0.851605      0.668725
H      -1.680125     -0.868216      0.263977
H       0.576569     -0.425160      1.234727
H       1.672238     -1.344278     -0.514288
