15
Extracted from Q-Chem output
C       1.892011     -0.064743      0.231395
C       0.397429     -0.077299      0.175954
C      -0.479922     -1.265785     -0.186414
C      -1.583761     -0.256834     -0.530453
C      -1.801834      0.769619      0.514679
C      -0.444669      0.855622      0.961929
C      -0.520194      0.871464     -0.626128
H       2.274831      0.944799      0.392824
H       2.238381     -0.693909      1.053969
H       2.326047     -0.450594     -0.692040
H      -0.103877     -1.765763     -1.080795
H      -2.358005     -0.448688     -1.261892
H      -0.690183     -1.997105      0.598080
H      -0.031545      1.677767      1.533401
H      -0.348614      1.737523     -1.242335
