15
Extracted from Q-Chem output
C       1.953112     -0.034540      0.138713
C       0.469055      0.010661      0.030064
C      -0.539729     -1.123106     -0.217439
C      -1.518863     -0.099187     -0.740864
C      -1.733671     -0.144668      0.760423
C      -0.500993      0.803204      0.865632
C      -0.444936      1.011665     -0.630028
H       2.350468      0.967766      0.309955
H       2.267999     -0.668759      0.971055
H       2.405943     -0.422843     -0.776575
H      -0.428455     -2.123019     -0.627337
H      -2.269475     -0.296161     -1.495408
H      -1.093504     -1.358234      0.893523
H      -0.241414      1.472668      1.673312
H      -0.211500      1.884542     -1.218655
