20
smiles: [C:1]([C:2](=[C:3]([H:11])[H:13])[H:10])([H:7])([H:8])[H:9].[C:4]([C:5]([H:15])([H:16])[H:17])(=[C:6]([H:19])[H:20])[H:14].[H:12][H:18]
C       -2.17351700       0.67392300      -0.13677500
C       -1.72861200      -0.34793700       0.86029500
C       -1.75751600      -1.65797700       0.67158600
C        1.66562300       0.83796000       0.43056200
C        2.14649000      -0.57782400       0.40982300
C        1.77753400       1.69430500      -0.57291600
H       -1.35889000       1.35974200      -0.38337100
H       -2.52038200       0.20680200      -1.05950800
H       -2.98779200       1.28198500       0.26597500
H       -1.35776200       0.03681500       1.80773700
H       -1.42373700      -2.34927600       1.43573400
H        0.00489900      -1.01273900      -2.47527200
H       -2.12026300      -2.08800100      -0.25662200
H        1.19061400       1.17038700       1.35086700
H        2.60582600      -0.82854500      -0.54738500
H        1.32210500      -1.27331000       0.58719500
H        2.88243500      -0.75192000       1.19913500
H        0.14303900      -0.52898300      -1.92640500
H        1.40684700       2.70924100      -0.49621000
H        2.24386100       1.40943200      -1.51066700
