20
Extracted from Q-Chem output
C      -1.949635      0.826639      0.557231
C      -1.070078     -0.392333      0.494599
C      -1.233562     -1.322932     -0.498731
C       1.045481      0.661897      0.150920
C       1.877909     -0.167732      1.090087
C       1.302800      0.660185     -1.195633
H      -1.569017      1.576618      1.252073
H      -2.038550      1.295108     -0.426413
H      -2.960001      0.564674      0.885611
H      -0.594314     -0.705526      1.414185
H      -0.857022     -2.331128     -0.366526
H      -0.259312     -0.947084     -1.616017
H      -2.060020     -1.226532     -1.197085
H       0.518010      1.507648      0.570938
H       2.003235     -1.182489      0.702849
H       1.430151     -0.241515      2.082098
H       2.876802      0.260767      1.214597
H       0.403180     -0.411874     -1.806084
H       0.943133      1.470571     -1.819894
H       2.171601      0.133155     -1.579194
