10
Extracted from Q-Chem output
C      -2.075915     -0.119723     -0.244167
C       0.308854      0.554024     -0.001010
N      -0.771387      0.427711     -0.459228
O       2.419333     -1.191663     -0.100130
C       2.493333     -0.069255      0.321895
N       1.442391      0.840317      0.422522
H      -2.160657     -1.063707     -0.781690
H      -2.259892     -0.291402      0.816916
H      -2.823099      0.569681     -0.633293
H       3.433793      0.361851      0.692083
