10
Extracted from Q-Chem output
C      -1.614372      0.055731     -0.003042
C      -0.137877     -0.052651     -0.107245
N       0.455186     -0.607725     -1.119975
O       1.802522     -0.497475     -0.820659
C       1.870588      0.117319      0.348856
N       0.728005      0.424097      0.852660
H      -2.086740     -0.399593     -0.870870
H      -1.962854     -0.441663      0.902417
H      -1.907631      1.104187      0.059515
H       2.853173      0.297772      0.758343
