15
Extracted from Q-Chem output
C      -2.123910     -0.323470     -0.246170
C      -0.660694     -0.105381     -0.079346
C      -0.000451      1.186592     -0.481615
N       1.362230      0.986646     -0.062807
C       1.590390     -0.295662      0.378318
N       2.747765     -0.745296      0.659029
C       0.256259     -0.933585      0.413950
H      -2.412460     -1.328270      0.060191
H      -2.693796      0.393632      0.350239
H      -2.422123     -0.182295     -1.288231
H      -0.469013      2.044248      0.015639
H       2.128142      1.542772     -0.394607
H       2.685724     -1.706514      0.974834
H      -0.094422      1.344229     -1.564372
H       0.090555     -1.937707      0.779745
