15
Extracted from Q-Chem output
C      -2.097884     -0.325226     -0.205885
C      -0.685740     -0.028472      0.172990
C       0.073461      1.100707     -0.330726
N       1.166542      1.236095      0.580762
C       1.426374     -0.125984      0.712281
N       2.251462     -0.448274     -0.288628
C       0.163771     -0.794747      0.908687
H      -2.367416     -1.353373      0.036698
H      -2.788039      0.339179      0.319336
H      -2.248796     -0.174591     -1.276822
H      -0.418435      1.995222     -0.702911
H       1.970540      1.692485      0.169181
H       2.296985     -1.452666     -0.437453
H       1.231307      0.159244     -1.094743
H       0.024639     -1.819968      1.216949
