12
smiles: [H:8][H:11].[O-:1][C:2]1=[N:3][C:4]([H:9])([H:10])[C:5]2=[O+:6][C@@:7]12[H:12]
O        1.11340100       2.21318900       0.66148800
C        0.63393200       1.10664800       0.56458400
N        1.25869800      -0.06914400       0.37064700
C        0.54286000      -1.30870100       0.14899700
C       -0.70059000      -0.64972800       0.55736000
O       -1.10309300      -0.27388400       1.70997800
C       -0.86203500       0.77040100       0.60201700
H        0.04023500       0.60475200      -2.36496300
H        0.82120900      -2.10834000       0.83524200
H        0.57096100      -1.64177700      -0.88833900
H       -0.58466600       0.32061800      -2.65333900
H       -1.74235300       1.32941400       0.32261300
