14
Extracted from Q-Chem output
C       2.596639      0.406230     -0.010189
N       1.400162     -0.393797      0.073221
C       0.285910      0.183179     -0.023679
C      -0.990681     -0.557785      0.050345
C      -2.279090      0.200588     -0.071979
N      -0.972812     -1.809707      0.824300
N      -0.951169     -1.966740     -0.374181
H       3.173878      0.280621      0.907881
H       2.399648      1.475719     -0.164926
H       3.215631      0.037003     -0.830129
H       0.195507      1.269548     -0.169298
H      -3.130396     -0.476935     -0.022478
H      -2.381075      0.931561      0.733582
H      -2.326391      0.735712     -1.023172
