14
Extracted from Q-Chem output
C       2.550783      0.372554     -0.099613
N       1.330011     -0.389615      0.004197
C       0.256999      0.240308      0.231843
C      -1.057508     -0.219100      0.544061
C      -2.283371      0.193215     -0.182404
N      -1.009192     -2.121686      0.819434
N      -0.857930     -2.140444     -0.282229
H       3.258156      0.035173      0.661967
H       2.404004      1.455701      0.019699
H       3.016162      0.190597     -1.071165
H       0.237404      1.344047      0.332766
H      -3.167695     -0.320825      0.193012
H      -2.407456      1.246597      0.095478
H      -2.250037      0.139142     -1.274138
