13
Extracted from Q-Chem output
C      -1.755256      0.103496      0.246609
C      -0.412078     -0.291942     -0.366463
C       0.777203      0.039482      0.499647
C       2.355997      0.023453     -0.785475
O       2.074711      0.638732     -1.734790
H      -1.792103      1.177551      0.442957
H      -1.926811     -0.412128      1.194207
H      -2.582351     -0.141928     -0.423822
H      -0.421001     -1.365258     -0.585751
H      -0.301682      0.219603     -1.329253
H       0.836645      1.093537      0.784813
H       0.845969     -0.581902      1.400964
H       2.300755     -0.502695      0.179162
