13
Extracted from Q-Chem output
C       1.869099     -0.675093     -0.707902
C       0.705080      0.109579     -0.191475
C      -0.542256     -0.333174     -0.139403
C      -1.720140      0.438937      0.379709
O      -1.397947      1.664355      0.995401
H       2.634272     -0.798925      0.062963
H       1.564116     -1.666833     -1.045279
H       2.345072     -0.161012     -1.546934
H       0.912443      1.121530      0.148381
H      -0.771113     -1.336701     -0.494183
H      -0.819322      1.482403      1.739199
H      -2.296414     -0.202734      1.061293
H      -2.390915      0.686999     -0.447959
