13
Extracted from Q-Chem output
C       1.717667     -0.352658     -0.226927
C       0.314284      0.156369     -0.344728
C      -0.905844     -0.712738     -0.194649
C      -1.584312      0.522840      0.334096
O      -0.220303      0.815359      0.970153
H       2.422689      0.457544     -0.032314
H       1.797723     -1.108942      0.553862
H       1.991755     -0.816436     -1.177648
H       0.246879      1.001864     -1.048315
H      -1.304597     -1.317852     -1.004565
H      -0.299306     -0.239887      1.280487
H      -2.367322      0.463669      1.088854
H      -1.742971      1.380683     -0.335430
