16
Extracted from Q-Chem output
C      -1.366244      0.046647     -1.229524
C      -0.751121      0.337815      0.088387
O      -1.307990      1.212424      0.878896
C       0.197308     -0.576390      0.701267
C       1.595289     -0.905583     -0.015480
O       2.320102     -1.609668      0.674981
N       1.697355     -0.390565     -1.211141
H      -2.089079     -0.762018     -1.079545
H      -0.583942     -0.303565     -1.903623
H      -1.878126      0.913648     -1.647345
H       0.487848      1.674088     -0.732511
H      -1.961101      1.745486      0.408458
H       0.394077     -0.304807      1.735114
H      -0.282054     -1.561868      0.672356
H       2.613163     -0.579351     -1.601602
H       0.975724      1.065540     -0.997190
