12
Extracted from Q-Chem output
O      -1.413777      0.718956      0.029405
C      -0.932800     -1.115523      0.159647
C       0.325976     -0.681318     -0.388096
C      -0.028006      0.953194     -0.278347
C       0.541583      2.066404     -0.314266
C       1.504422     -0.994322      0.394182
N       2.438101     -1.253983      1.008170
H      -1.749049      1.450742      0.581716
H      -1.017024     -1.327678      1.217294
H      -1.716823     -1.489163     -0.481888
H       0.472057     -0.917060     -1.439450
H       1.498593      2.513675     -0.495892
