12
Extracted from Q-Chem output
C      -1.156133      1.054410      0.155494
C      -1.072169     -0.378308      0.526843
O      -0.512803     -1.382288     -0.845130
C       0.237619     -1.057810      0.338717
C       1.444870     -0.308117      0.048177
C       2.459723      0.301237     -0.126938
H      -0.355129      1.409387     -0.497740
H      -1.071235      1.591123      1.109240
H      -2.130221      1.304606     -0.262403
H      -1.486258     -1.417824     -0.299206
H       0.443701     -1.925113      0.964557
H       3.361983      0.841295     -0.293192
