10
Extracted from Q-Chem output
N      -1.396512     -0.017550     -0.471582
C      -0.692047     -0.969644      1.167581
O      -1.120436     -1.974615      1.473755
O       1.287766     -0.683300      1.033004
C       1.340423      0.277583      0.243882
N       0.706863      0.202672     -0.916499
H      -1.180875     -0.137806     -1.453171
H      -1.465879      0.978949     -0.280723
H       1.817978      1.216773      0.566106
H       0.703615      1.114170     -1.373390
