13
Extracted from Q-Chem output
C       1.771091     -0.122020     -0.268024
C       0.324008      0.146909     -0.108092
O      -0.228951      1.316186     -0.598543
C      -1.451003      0.696855     -0.092269
C      -0.955772     -0.722646     -0.287002
O      -1.305806     -1.122417      1.023392
C      -1.093467      0.258767      1.360109
H       2.362234      0.735196      0.053788
H       1.977458     -0.311640     -1.325793
H       2.055535     -1.005007      0.304126
H      -2.393831      1.155836     -0.373147
H      -1.111815     -1.437026     -1.105580
H       0.080987      0.412050      1.402041
