14
Extracted from Q-Chem output
C       1.032901      0.657355     -0.429810
O       1.366910     -0.617960      0.001600
C       0.360973     -1.132885      0.865516
C      -0.968407     -0.745105      0.242886
C      -0.883776      0.740063     -0.037123
O      -0.995501      1.592770      0.970930
H       1.053990      0.754375     -1.514538
H       1.706751      1.424885      0.001497
H       0.196013      1.370511      0.374775
H       0.451916     -0.694144      1.865945
H       0.512575     -2.208950      0.931150
H      -1.801754     -0.897931      0.930348
H      -1.136884     -1.311128     -0.675317
H      -1.270783      1.055758     -1.017660
