11
Extracted from Q-Chem output
C      -1.992044     -0.676540     -0.157877
C      -0.025420      0.496694      0.501917
N      -0.952819     -0.220283      0.742490
N       2.298737     -0.466263     -0.357387
N       2.292979      0.736212     -0.051297
C       1.049157      1.258045      0.339145
H      -2.960391     -0.475332      0.297931
H      -1.934012     -0.197313     -1.136726
H      -1.889581     -1.755091     -0.272268
H       3.266939     -0.698752     -0.597136
H       1.005431      2.318818      0.531595
