11
Extracted from Q-Chem output
C      -0.697053      0.223419      0.454675
C      -1.226132     -0.401974     -0.820632
O      -2.388753     -0.441797     -1.103345
O       1.728483     -1.061651      1.090535
C       1.740102      0.058945      0.641576
N       0.631088      0.764183      0.303362
H      -0.649496     -0.567958      1.208216
H      -0.448525     -0.837193     -1.482746
H      -1.397192      0.984376      0.800053
H       2.671590      0.624767      0.468136
H       0.749278      1.684529     -0.080706
