10
Extracted from Q-Chem output
O      -1.573700      0.985230      0.522913
C      -0.270439      0.501469      0.616099
C      -0.013557     -0.991575      0.454655
O       0.954142      1.465841     -1.393944
C       0.657283      0.590369     -0.640517
C       0.850577     -0.884734     -0.563852
H      -1.927162      0.783616     -0.347282
H       0.165551      0.933478      1.518502
H      -0.406860     -1.841239      0.997620
H       1.452388     -1.592763     -1.117186
