14
Extracted from Q-Chem output
C      -1.335430     -0.859458      0.046211
C      -0.209358     -0.058432     -0.590664
C      -1.381407      0.617990      0.112666
O      -1.204823      1.308613      1.290879
C       1.091384     -0.037790      0.119367
O       1.169232     -0.038587      1.341325
N       2.197940      0.002808     -0.657810
H      -0.420702      0.937393      1.727589
H      -2.004723     -1.387331     -0.619738
H      -1.072404     -1.379006      0.959180
H      -0.176263     -0.006446     -1.671897
H      -2.076925      1.132035     -0.538904
H       2.146604     -0.000114     -1.658073
H       3.094934      0.044737     -0.208178
