14
Extracted from Q-Chem output
C      -0.794561     -1.149503     -0.199892
C      -0.309862      0.222057     -0.448961
C      -1.116026      1.176292      0.345376
O      -1.578170      0.888219      1.507639
C       1.187341      0.490314     -0.193826
O       1.584583      1.557414      0.232015
N       1.952463     -0.560730     -0.517220
H      -1.325061     -0.058995      1.658580
H      -1.730190     -1.461580     -0.641988
H      -0.423489     -1.706767      0.656391
H      -0.486219      0.515040     -1.494072
H      -1.466526      2.135799     -0.028144
H       1.476073     -1.417691     -0.765906
H       2.944376     -0.526058     -0.370251
