11
Extracted from Q-Chem output
O      -2.571542     -0.609518      0.129337
C      -2.351689      0.459575     -0.380056
C      -1.066522      1.164224     -0.352251
C      -0.017046      0.632970      0.246383
N       0.918948      0.204076      0.857958
C       1.966913     -0.657140      0.491067
N       1.754018     -1.856823      0.195642
H      -3.147618      1.004420     -0.923731
H      -0.962396      2.133077     -0.821974
H       2.938602     -0.165521      0.562278
H       2.629803     -2.336765      0.008570
