11
Extracted from Q-Chem output
O      -2.776991     -0.949068     -0.065336
C      -2.317725      0.162401     -0.048207
C      -1.003545      0.459668      0.462674
C       0.146104      0.901481      0.016745
N       1.385737      0.899034     -0.221929
C       1.939136     -0.386442     -0.065266
N       1.226793     -1.400095      0.175023
H      -2.890084      1.054819     -0.371270
H      -0.501923      1.888910      0.017523
H       3.023694     -0.390322     -0.175414
H       1.777610     -2.245035      0.275919
