14
Extracted from Q-Chem output
O      -0.732324      2.050235      0.040494
C      -0.566419      0.907573      0.687174
C      -1.067635     -0.533732     -0.458327
C       0.323078     -0.994234     -0.083238
C       1.390838     -0.046079     -0.531563
C       0.742251      0.159858      0.792464
H      -1.154285      0.929399     -0.491085
H      -1.231442      0.703002      1.539150
H      -1.265847     -0.477356     -1.536541
H      -1.888417     -1.038465      0.044248
H       0.552767     -2.032998      0.111970
H       1.188014      0.659680     -1.328861
H       2.403492     -0.425505     -0.505708
H       1.284009      0.115315      1.727361
