17
Extracted from Q-Chem output
C       1.953588     -0.088239     -0.258421
C       0.484167     -0.178988      0.051555
C       0.035883     -0.310887      1.475122
C      -1.722681      0.010993     -0.856370
C      -0.442911     -0.772202     -1.007045
C      -1.611390      0.971686      0.054721
C      -0.276076      0.951769      0.707643
H       2.124207      0.458980     -1.188973
H       2.493535      0.427915      0.537839
H       2.394870     -1.082584     -0.367382
H      -0.791886     -0.968708      1.713430
H       0.806810     -0.253948      2.234362
H      -2.617646     -0.209029     -1.425067
H      -0.020590     -0.646249     -2.010644
H      -0.595539     -1.846855     -0.865964
H      -2.394490      1.668453      0.326844
H       0.209437      1.874788      1.000444
