17
Extracted from Q-Chem output
C       1.964001     -0.076172     -0.117807
C       0.455725     -0.026888     -0.011276
C      -0.127597     -0.706806      1.238395
C      -1.685114     -0.230367     -0.486689
C      -0.372890     -0.644291     -1.118377
C      -1.548204      1.074111      0.006481
C      -0.210850      1.281370      0.268303
H       2.308013      0.420434     -1.026339
H       2.437937      0.406259      0.739910
H       2.308348     -1.112535     -0.150588
H      -0.835267     -0.201352      1.869582
H       0.524284     -1.408599      1.772051
H      -2.639285     -0.693303     -0.709904
H      -0.236999     -0.197683     -2.115733
H      -0.223630     -1.721435     -1.178535
H      -2.365368      1.717831      0.302615
H       0.256113      2.129183      0.748429
