17
Extracted from Q-Chem output
C      -2.297979      0.105982      0.872940
C      -1.233243      0.158063     -0.158032
C      -0.277731     -1.017696     -0.249311
C       0.820620      0.016887     -0.272804
C       2.229950     -0.214390      0.163602
C       0.433779      1.024891     -1.253045
O       0.048708      1.005115      0.486207
H      -3.034421     -0.642643      0.564053
H      -2.819399      1.057649      0.986269
H      -1.897040     -0.194084      1.857043
H      -0.215239     -1.648458      0.651803
H      -0.353818     -1.645183     -1.140548
H       2.739061     -0.869753     -0.545428
H       2.236624     -0.692259      1.143554
H       2.777139      0.726958      0.227737
H      -0.173848      0.849295     -2.124909
H       1.005957      1.946915     -1.228449
