14
Extracted from Q-Chem output
C       1.360507      0.149155     -0.775662
C       0.905336      1.249741      0.107804
C      -0.846828      0.516724      0.998022
O      -1.890501      0.010449      0.206056
C      -1.081591     -0.768161     -0.660269
C       0.253037     -0.484392      0.003154
H       1.164808      0.288839     -1.836888
H       2.326128     -0.314612     -0.584959
H       1.431729      1.145274      1.070835
H      -0.973462      1.577644      1.167190
H      -0.750915     -0.005601      1.954993
H      -1.138147     -0.384177     -1.682650
H      -1.358597     -1.826990     -0.654070
H       0.606538     -1.231249      0.702783
