17
Extracted from Q-Chem output
C       1.280706     -0.206413      1.053664
C       1.453719      0.813970     -0.000912
C       1.149069     -0.605674     -0.389347
C      -0.221047     -0.490583     -1.015630
C      -1.440989     -0.811973     -0.122068
C      -1.484968      0.683292      0.284322
C      -0.485319      1.022550     -0.827345
H       2.200484     -0.521036      1.532418
H       0.427020     -0.198333      1.719983
H       2.369695      1.367225     -0.169461
H       1.895697     -1.273609     -0.802030
H      -0.240106     -0.871259     -2.038454
H      -1.279190     -1.541994      0.673397
H      -2.315265     -1.118825     -0.696102
H      -2.437188      1.200393      0.145610
H      -1.162021      0.891688      1.306011
H       0.592176      1.617636     -0.503368
