9
Extracted from Q-Chem output
C      -1.830701      0.294702     -0.134052
C      -0.383824      0.607346     -0.208691
O       0.267933     -0.548679     -0.041062
C       1.585291     -0.512681     -0.080577
C       2.774418     -0.576379     -0.101787
H      -2.264258      0.613795     -1.087910
H      -2.269148      0.966197      0.609857
H      -2.085936     -0.747077      0.077236
H       3.836910     -0.608952     -0.124730
