9
Extracted from Q-Chem output
C      -1.298116      0.346498     -0.143000
C      -0.245011     -0.721629     -0.042239
O      -0.491540     -1.892867      0.086938
C       1.138371     -0.248845     -0.113519
C       2.263022      0.159001     -0.173691
H      -1.201846      0.867717     -1.097874
H      -1.148857      1.087373      0.645084
H      -2.285054     -0.103017     -0.058931
H       3.269033      0.505768     -0.225272
