18
smiles: [C:1](=[C:2]([C:4]([C:5]([O:6][H:18])([H:16])[H:17])([H:14])[H:15])[H:10])([H:7])[H:9].[C:3]([H:8])([H:11])([H:12])[H:13]
C       -0.75467800       1.41471800      -2.07472200
C       -0.20654400       0.44920600      -1.35362900
C       -2.43609700      -1.39689800       0.96093400
C        0.78082200       0.65758200      -0.24752900
C        2.11443400      -0.00812300      -0.53873200
O        2.94927100       0.17137800       0.58959500
H       -0.51807200       2.45861600      -1.89533700
H       -2.36420900      -0.40202800       0.52404000
H       -1.46572300       1.20026400      -2.86325600
H       -0.47539500      -0.58364000      -1.56827700
H       -2.88688600      -1.32817700       1.94982100
H       -1.44058400      -1.83030000       1.04435200
H       -3.05410100      -2.02837800       0.32438500
H        0.94312200       1.72417800      -0.07587200
H        0.39095300       0.23513800       0.68418000
H        2.56001100       0.44104200      -1.43555800
H        1.95789700      -1.07621700      -0.74335600
H        3.80205700      -0.22635100       0.41101300
