11
Extracted from Q-Chem output
C       1.517775     -0.730286      0.930738
N       0.535645      0.067377      0.232233
C      -1.611091      1.420874     -0.821836
O      -2.347699      2.042971     -1.510662
C      -0.365635     -0.529239     -0.390773
O      -1.348548      0.106157     -1.091430
H       1.368281     -1.810560      0.811346
H       1.486994     -0.487522      1.993947
H       2.512102     -0.469070      0.566289
H      -1.094506      1.785864      0.073283
H      -0.483532     -1.611499     -0.482963
