11
Extracted from Q-Chem output
C       1.300340     -0.264237      0.600356
N       0.043905      0.021641     -0.035519
C      -0.987029      1.296732     -0.817509
O      -0.661860      1.745779     -1.858189
C      -0.977560     -0.730463     -0.192478
O      -1.917285     -0.104634     -0.804183
H       2.116655     -0.110267     -0.106520
H       1.334506     -1.297780      0.956118
H       1.455012      0.400447      1.451822
H      -1.369457      1.813357      0.068259
H      -1.101290     -1.762623      0.138334
