16
Extracted from Q-Chem output
C       1.681721      1.161577      0.582076
C       0.938419     -0.066843      0.082642
C      -0.438277     -0.229576      0.716650
C      -1.256358     -1.394771      0.272664
C      -0.529457      0.100369     -1.594256
C      -1.419558     -0.062208     -0.416073
N       0.716869      0.049850     -1.368299
H       2.615215      1.287649      0.033461
H       1.910114      1.068198      1.645860
H       1.558398     -0.953279      0.249865
H      -0.628156      0.204110      1.689912
H      -0.773411     -2.193558     -0.278322
H      -2.063745     -1.710736      0.920282
H      -0.903495      0.229736     -2.607368
H       1.075073      2.058212      0.435413
H      -2.356129      0.473507     -0.342257
