12
Extracted from Q-Chem output
O       1.099087     -0.938897      1.044525
C       0.424165     -0.996984     -0.056442
C      -1.004971     -0.658282     -0.051229
C      -0.491808      0.794390      0.154189
O      -0.300062      1.148510      1.342365
C       0.129133      1.246984     -0.993635
H       0.635856     -0.223725      1.605528
H       0.950504     -1.393400     -0.918097
H      -1.562402     -1.017083      0.809297
H      -1.497187     -0.850203     -0.998458
H      -0.166248      0.859591     -1.959490
H       0.731100      2.147405     -0.968088
