12
Extracted from Q-Chem output
C      -1.404798     -0.484116     -0.898801
C      -0.268596     -0.056895     -0.028629
C       0.196170      1.215219      0.238104
O       1.407395      1.182017      0.713331
C       1.854957     -0.232089      0.733665
O       2.953341     -0.475066      1.117787
N       0.829968     -0.987742      0.280062
H      -1.056636     -0.615943     -1.924197
H      -1.814772     -1.434401     -0.560140
H      -2.198603      0.263005     -0.889961
H      -0.291497      2.173632      0.125969
H      -0.249513     -0.545503      1.062903
