11
Extracted from Q-Chem output
C      -1.485532     -0.089858      0.032007
C       0.006901     -0.020791      0.004213
C       0.927284     -1.114967      0.153482
O       2.145041     -1.002366      0.124747
N       1.991034      1.441993     -0.233799
C       0.831729      1.053611     -0.162480
H      -1.787977     -1.133972      0.126798
H      -1.917717      0.448000      0.878465
H      -1.939384      0.293648     -0.883860
H       0.460254     -2.104071      0.298745
H       0.777962      2.223228     -0.337573
