13
Extracted from Q-Chem output
C       1.794477     -0.273040      0.522032
C       0.795901      0.632514     -0.145393
O       0.902624      1.843198     -0.139245
C      -0.232608      0.033724     -1.052515
C      -1.694595     -0.500437     -0.040413
N      -1.504901      0.637121     -0.979718
H       2.572080     -0.522120     -0.203073
H       1.345417     -1.210735      0.853530
H       2.252762      0.244626      1.362530
H      -0.773647     -1.176832     -0.207729
H      -1.712069     -0.203134      1.003269
H      -2.509596     -1.149836     -0.348698
H      -1.445940      1.493300     -0.422008
