14
smiles: [C-:6]#[O+:7].[C:1](/[C:2](=[N:3]/[H:11])[C:4](=[C:5]([H:13])[H:14])[H:12])([H:8])([H:9])[H:10]
C       -1.86298200       0.08166500       0.13840000
C       -0.47936200      -0.38359100       0.48972600
N       -0.18816100      -1.61383100       0.38266800
C        0.45990900       0.67356600       0.95273800
C        1.75874200       0.68063300       0.68979200
C        0.89099400      -0.74181000      -2.63152800
O       -0.07200000      -0.34652500      -3.05393500
H       -1.82384800       0.85015700      -0.63748400
H       -2.34303200       0.53030700       1.01225900
H       -2.46027200      -0.75842600      -0.20820200
H        0.76951000      -1.78472000       0.68789600
H        0.01840600       1.50175300       1.50082300
H        2.22431700      -0.10236300       0.10023700
H        2.40201200       1.47816000       1.03944800
