14
Extracted from Q-Chem output
C      -1.849595     -0.052241      0.045777
C      -0.379252     -0.370968      0.163840
N      -0.080453     -1.403191      0.993479
C       0.620045      0.563141      0.685971
C       1.767482      0.534343     -0.111885
C       0.370124     -0.082217     -1.396443
O       0.044061      0.227570     -2.455058
H      -2.037289      0.815936     -0.586323
H      -2.250723      0.128809      1.043252
H      -2.362987     -0.917508     -0.373981
H       0.913075     -1.606275      0.977755
H       0.399442      1.267436      1.476326
H       2.236213     -0.421323     -0.333377
H       2.497269      1.336987     -0.041375
