12
Extracted from Q-Chem output
O       2.460915     -0.192834      1.106173
C       1.588436     -0.268947      0.302828
C       0.773550     -1.111729     -0.573415
C      -1.769862      0.319312      0.514961
C      -0.662591      0.984806      0.227178
C       0.529031      0.423690     -0.454712
H       0.061524     -1.781545     -0.104655
H       1.195518     -1.475259     -1.502688
H      -1.902644     -0.722150      0.243906
H      -2.591492      0.798806      1.031305
H      -0.575886      2.029270      0.512854
H       0.888940      0.999792     -1.303783
