15
Extracted from Q-Chem output
O      -0.413038      2.744931      0.055741
C      -0.218513      1.541684      0.131141
C      -1.248839      0.508825     -0.354238
C      -0.756651     -0.818385      0.170644
C       0.897695     -0.565646      0.551593
C       1.242315     -0.945201     -0.794807
C       0.865414      0.862493      0.755402
H      -1.356884      0.535489     -1.438515
H      -2.214394      0.771899      0.080154
H      -1.125065     -1.045794      1.170257
H      -0.954602     -1.680441     -0.458074
H       1.172447     -1.257751      1.351085
H       1.575708     -0.186065     -1.490737
H       0.964924     -1.909350     -1.205498
H       1.554161      1.389101      1.401867
