15
Extracted from Q-Chem output
C       2.160805     -1.482160      0.005269
C       1.092388     -0.878444     -0.860692
C       0.019268     -0.297691     -0.413426
C      -1.064407      0.324600     -0.017893
N      -2.343096     -0.277724      0.068160
C      -1.051577      1.777812      0.266706
N       0.001015      2.410429      0.567232
H       1.915481     -1.376015      1.060944
H       2.292113     -2.543007     -0.221385
H       3.118475     -0.988898     -0.176499
H       1.245969     -0.923944     -1.937980
H      -2.782190     -0.131389      0.966599
H      -2.312945     -1.264694     -0.136803
H      -2.040334      2.248417      0.195083
H      -0.202294      3.397819      0.701176
