15
Extracted from Q-Chem output
C       2.222223     -0.720440      0.114572
C       0.837944     -0.207331     -0.152296
C      -0.362012     -1.012356     -0.286697
C      -1.400110     -0.033635     -0.120118
N      -2.760235     -0.323397     -0.306606
C      -0.866319      1.184332      0.211955
N       0.492287      1.090810      0.229801
H       2.361885     -0.881293      1.184555
H       2.349882     -1.677362     -0.388045
H       2.992472     -0.030058     -0.236237
H       0.529224     -0.403287     -1.292605
H      -3.372386      0.085303      0.381823
H      -2.900449     -1.321117     -0.355502
H      -1.354008      2.132443      0.394411
H       1.122924      1.862246      0.349567
