15
smiles: [C:1]([C:2]([C:3]([H:11])([H:12])[H:13])=[C:4]([C:5]#[N:6])[H:14])([H:7])([H:8])[H:9].[H:10][H:15]
C       -0.31930000       0.99533900      -1.00689400
C        0.02146900      -0.30556100      -0.35246800
C       -1.07941500      -1.31699600      -0.27461600
C        1.23190300      -0.57903700       0.14276800
C        2.32201300       0.34301900       0.09628700
N        3.20827200       1.07493700       0.06630200
H        0.52320200       1.68435300      -1.02672800
H       -1.15039600       1.47279700      -0.48139800
H       -0.65229300       0.82090900      -2.03333700
H       -1.20272800       0.99244400       2.62317100
H       -1.43668700      -1.56432900      -1.27768500
H       -1.93248700      -0.90809800       0.27286800
H       -0.75810800      -2.23521600       0.21510100
H        1.44135000      -1.53394800       0.60941800
H       -0.57734800       0.71502500       2.32934600
