15
Extracted from Q-Chem output
C      -0.393298      1.239001     -0.571234
C      -0.200318     -0.085719      0.122541
C      -1.225457     -1.150063     -0.182918
C       1.173131     -0.578600      0.255136
C       2.261529      0.304804      0.188633
N       3.138485      1.057623      0.141433
H       0.320040      1.982986     -0.221374
H      -1.410428      1.612428     -0.451300
H      -0.194640      1.063102     -1.631156
H      -0.749407      0.320291      1.390094
H      -1.065598     -1.448304     -1.221417
H      -2.243976     -0.778229     -0.070996
H      -1.088818     -2.029496      0.445103
H       1.338790     -1.636569      0.386569
H       0.171594     -0.044017      1.346515
