14
Extracted from Q-Chem output
C      -1.860858      0.315558     -0.458368
C      -0.409735      0.174906     -0.143512
C       0.601496      1.022376     -0.384844
C       1.932009      0.602038     -0.046550
O       1.503532     -0.717704      0.826073
C       0.121882     -1.078460      0.467471
H      -2.202364     -0.427211     -1.188449
H      -2.066693      1.302057     -0.874324
H      -2.484404      0.195091      0.434268
H       0.460716      1.993581     -0.847615
H       2.407872      1.220230      0.718746
H       2.112289     -1.382489      0.494766
H      -0.391242     -1.408298      1.375619
H       0.181697     -1.922982     -0.233438
