14
Extracted from Q-Chem output
C      -1.839400      0.309939     -0.525075
C      -0.416947      0.099077     -0.134964
C       0.637528      0.864372     -0.367372
C       1.868345      0.244835      0.215848
O       1.422089     -0.962400      0.816603
C       0.026511     -1.111956      0.635407
H      -2.192799     -0.505183     -1.162389
H      -1.968182      1.247253     -1.065501
H      -2.485474      0.329572      0.356714
H       0.639123      1.806411     -0.900066
H       2.340679      0.881748      0.974507
H       2.626109      0.019851     -0.545480
H      -0.473696     -1.180937      1.611099
H      -0.183886     -2.042582      0.090670
