14
Extracted from Q-Chem output
C      -1.832804      0.306176     -0.477279
C      -0.391266      0.143218     -0.131720
C       0.622453      0.971904     -0.382700
C       1.948310      0.553276      0.021887
O       1.472941     -0.843350      0.912055
C       0.097977     -1.102713      0.547825
H      -2.174418     -0.475751     -1.163154
H      -2.012950      1.269564     -0.953883
H      -2.463984      0.246639      0.415093
H       0.504362      1.924267     -0.888745
H       2.425014      1.167592      0.785544
H       2.111287     -0.893508      0.075105
H      -0.449510     -1.351842      1.462244
H       0.075897     -1.982664     -0.109120
