15
smiles: [C:1](=[C:2]1[C+:3]([H:11])[N:4]([H:12])[C:5]([N:6]([H:13])[H:14])=[C-:7]1)([H:8])[H:9].[H:10][H:15]
C       -2.21409600       0.27938400      -0.22038000
C       -0.87998000       0.36307200      -0.17356500
C       -0.16375000       1.56162800      -0.62215400
N        1.08679300       1.30033000      -0.43735500
C        1.25923700      -0.03265200       0.12025100
N        2.61732600      -0.36682700       0.34734200
C        0.07755400      -0.65521800       0.30483500
H       -2.83200200       1.09050100      -0.59255000
H       -2.70579200      -0.62285500       0.12392100
H       -1.99467900      -3.38211700       1.16096500
H       -0.52312000       2.49710700      -1.02856400
H        1.85792800       1.92141200      -0.64091000
H        2.75581400      -0.61437800       1.31759100
H        2.87587200      -1.17578700      -0.20119400
H       -1.47449000      -2.87101900       1.01096400
