15
Extracted from Q-Chem output
C      -1.241637     -1.290187      0.789354
C      -0.295908     -0.354673      0.103675
C      -0.293211      1.921450     -0.863845
N      -0.731704      0.882569     -0.171646
C       1.010885     -0.865652     -0.271849
O       1.260857     -2.059013     -0.196653
N       1.971312      0.029661     -0.708132
H      -1.644172     -2.039196      0.101922
H      -0.737756     -1.835446      1.587839
H      -2.085975     -0.748819      1.226962
H      -0.921345      2.795655     -0.881309
H       0.578580      1.838956     -1.487312
H      -1.632747      1.055379      0.259292
H       1.939918      0.970499     -0.346761
H       2.890536     -0.382491     -0.736383
