17
Extracted from Q-Chem output
C      -0.935904      0.304839      1.577950
C      -1.110691     -0.385726      0.249637
C      -0.520501      0.144530     -1.027264
C       0.002128     -1.137450     -0.425893
C       1.401125     -0.828238      0.071269
C       1.643613      0.638754      0.039633
C       0.587186      1.167302     -0.864151
H      -1.677387      1.096263      1.706319
H      -1.053101     -0.403040      2.401262
H       0.049494      0.770208      1.694919
H      -2.085767     -0.843672      0.123810
H      -1.126042      0.143563     -1.924443
H       1.156559      1.297631     -1.801543
H      -0.211878     -2.100521     -0.871221
H       2.169419     -1.183590     -0.638322
H       1.685808     -1.277260      1.025983
H       0.274869      2.178843     -0.593300
