15
Extracted from Q-Chem output
C      -1.267650     -1.027927      0.476070
N      -0.163007     -0.232680     -0.015185
C      -0.119682      1.800923     -0.300249
C       0.914744     -0.863562     -0.787357
C       1.185541     -0.188866      0.528642
O       1.598228      1.058757      0.550168
H      -1.997588     -1.184222     -0.321049
H      -1.750464     -0.506889      1.304656
H      -0.932588     -2.007509      0.828845
H      -1.200007      1.689637     -0.281041
H       0.219583      2.584927      0.359099
H       0.282462      1.864697     -1.300480
H       1.206062     -0.347273     -1.693836
H       0.865710     -1.946532     -0.856877
H       1.370381     -0.836484      1.390616
