9
Extracted from Q-Chem output
O      -0.637462      1.475202      0.325762
C      -0.179296      0.276793     -0.049816
C      -1.045655     -0.873837      0.153022
O      -0.660405     -2.015110      0.057554
C       1.230141     -0.008247     -0.294885
N       2.013962     -0.733984     -0.865326
H      -0.253908      2.171098     -0.218553
H       1.606123      0.505625      0.633357
H      -2.108448     -0.613273      0.308333
