17
smiles: [C:1]([H:8])([H:9])([H:10])[H:15].[C:2](=[C:3]([O:4][C:5]1([H:14])[C:6]([H:16])=[C:7]1[H:17])[H:13])([H:11])[H:12]
C        1.82712800      -0.26439200      -1.48972300
C        0.91462100       1.62671600       1.93690200
C        0.04367900       0.65978300       1.69171100
O       -0.89817600       0.74768800       0.72561900
C       -1.73114800      -0.38919800       0.59023600
C       -2.38177100      -0.59352800      -0.70728700
C       -1.41452800      -1.40676800      -0.43257700
H        2.74752800       0.27409100      -1.71056700
H        1.46580100      -0.75207700      -2.39378600
H        2.02015100      -1.01452300      -0.72437000
H        0.91302800       2.54625700       1.36653200
H        1.64556300       1.49911700       2.72172300
H        0.04036400      -0.26835900       2.26035700
H       -2.21771500      -0.63791700       1.53313500
H        1.07458900       0.43618200      -1.13094500
H       -3.13384000      -0.24169700      -1.39147400
H       -0.77453200      -2.22046900      -0.72541000
