16
smiles: [C:1](/[C:2](=[C:3](/[C:4]([H:11])([H:13])[H:14])[H:12])[H:10])([H:7])([H:8])[H:9].[O:5]=[C:6]([H:15])[H:16]
C        2.12090400       0.35284100      -0.11697900
C        0.69751600       0.70645000      -0.41268900
C       -0.19694300      -0.11284200      -0.94665700
C       -1.62033100       0.24077200      -1.24231100
O       -1.93278800      -1.08710500       1.95391500
C       -0.75738100      -0.88086100       2.02959100
H        2.80853800       0.99710900      -0.67141300
H        2.34678100       0.48582100       0.94439000
H        2.33697400      -0.68302400      -0.38337400
H        0.39113100       1.72139600      -0.16378100
H       -1.84624500       0.10805600      -2.30372800
H        0.10940900      -1.12778700      -1.19557600
H       -2.30801300      -0.40372600      -0.68817900
H       -1.83652100       1.27654100      -0.97566600
H       -0.35427900       0.08113600       2.40025700
H       -0.00898800      -1.64124900       1.73452700
