16
Extracted from Q-Chem output
C       1.931345      0.251802      0.043236
C       0.433043      0.423285      0.052061
C      -0.356162     -0.235358     -0.925634
C      -1.749567     -0.013945     -0.895312
O      -1.635339     -0.373375      1.325452
C      -0.351121     -0.395086      1.428099
H       2.422846      0.931316     -0.656092
H       2.339341      0.450547      1.036543
H       2.208253     -0.769900     -0.226316
H       0.104532      1.440515      0.258579
H      -1.034568      0.424967     -1.901586
H      -0.002880     -1.145669     -1.400041
H      -2.432542     -0.746854     -1.303025
H      -2.138397      0.901524     -0.478428
H       0.098259      0.244447      2.210391
H       0.153112     -1.384580      1.433384
