12
Extracted from Q-Chem output
C      -0.744505     -1.378271     -0.631412
N      -1.699507     -0.370720     -0.279014
C       1.461353      0.919172      1.074985
C       0.973501     -0.131390      0.440410
N       0.606976     -1.119090     -0.130997
C       1.995244      2.020756      0.356050
N       2.425470      2.923254     -0.212957
H      -1.039961     -2.339508     -0.211104
H      -0.619410     -1.521321     -1.708729
H      -2.586366     -0.745202      0.013125
H      -1.834363      0.332931     -0.987257
H       1.433278      0.952485      2.155152
