12
Extracted from Q-Chem output
C      -1.060738     -1.024162     -0.532285
N      -1.043914      0.118511      0.246244
C       1.080454      0.550593      0.788075
C       1.383301     -0.631340      0.140403
N       1.307226     -1.636590     -0.441319
C       1.314907      1.789700      0.138649
N       1.402841      2.802503     -0.404146
H      -1.227683     -1.961201     -0.018223
H      -0.834355     -1.026283     -1.591206
H      -2.126837     -0.357078     -0.129045
H      -0.975317      0.942809     -0.349510
H       1.047229      0.550796      1.868782
