8
Extracted from Q-Chem output
C      -0.737773     -0.472104     -0.209669
N      -1.036919      1.014291      0.054601
N       0.039019      1.637610     -0.091775
N       1.121121      1.003060     -0.179663
C       0.756848     -0.348042      0.110098
N      -0.289970     -0.701085      1.028179
H      -1.432473     -1.075249     -0.785226
H       1.564273     -1.063318      0.036338
