15
smiles: [C:6]([O:7][H:15])([H:8])([H:13])[H:14].[O:1]1[C:2]([H:9])([H:10])[C:3]([H:11])([H:12])[C:4]1=[O:5]
O       -0.65882900       0.35469800      -0.42360800
C       -2.04862000      -0.03682800      -0.60512000
C       -1.69464000      -1.48458600      -0.26889300
C       -0.28977800      -0.92227400      -0.11858700
O        0.79109400      -1.31871300       0.15228900
C        2.17502100       1.49782600       1.50708000
O        2.87849600       0.70079300       0.57864700
H        1.24681000       1.90193800       1.08722900
H       -2.36942000       0.15659200      -1.62744200
H       -2.68873600       0.48284600       0.10580000
H       -1.79714800      -2.21105200      -1.07206300
H       -2.10864400      -1.88588000       0.65362000
H        2.82409500       2.33360600       1.76604200
H        1.93722400       0.95089700       2.42661000
H        2.32961100      -0.04482600       0.33478600
