15
Extracted from Q-Chem output
O      -0.424793      0.834866     -0.905154
C      -1.621844      0.285973     -0.353323
C      -1.000789     -0.995431      0.208522
C       0.394923     -0.555994     -0.177240
O       1.327035     -1.077836     -0.688092
C       1.140959      0.620239      1.233342
O       2.470487      0.721812      0.889369
H       0.336918      0.872175      0.172942
H      -2.362272      0.113410     -1.135027
H      -2.064148      0.937067      0.406888
H      -1.247964     -1.894280     -0.355515
H      -1.122533     -1.194635      1.272737
H       0.783119      1.599441      1.582726
H       0.929092     -0.112603      2.019317
H       2.654340      0.004975      0.261028
