17
Extracted from Q-Chem output
C      -1.939785     -0.556351      0.215118
C      -0.919612      0.147306     -0.658166
O      -0.486785      1.384392     -0.049974
C       0.865029      1.414894     -0.218143
C       1.426014      0.002085      0.016567
C       1.267680     -0.474874      1.341393
C       0.389859     -0.509605     -0.983428
H      -2.768999      0.118102      0.436380
H      -1.499567     -0.905436      1.146984
H      -2.334554     -1.422410     -0.318593
H      -1.413086      0.418168     -1.600682
H       0.853015      0.797583     -1.512432
H       1.293691      2.342364      0.162188
H       2.431223     -0.077942     -0.391174
H       0.357215     -0.273324      1.886624
H       2.059729     -0.987311      1.873224
H       0.391279     -1.505206     -1.422960
