10
Extracted from Q-Chem output
O      -0.117321     -1.133084     -0.793654
C       0.134984      0.274043     -0.739405
C       0.747406     -0.662769      0.199706
O       0.299121     -0.670948      1.495200
C      -1.012750      1.121346     -0.287325
O      -1.078457      2.291807     -0.538052
H       0.475185     -1.529516      1.886904
H       0.721693      0.689899     -1.553345
H       1.787972     -0.953528      0.065883
H      -1.791251      0.590023      0.289431
