10
Extracted from Q-Chem output
O      -0.622634     -1.352454     -0.348065
C      -0.052663     -0.150497     -0.638279
C       1.122062     -0.313983      0.248254
O       0.950815     -0.696265      1.446362
C      -0.978025      0.995647     -0.246659
O      -0.726180      1.838503      0.571336
H      -0.009895     -0.961275      1.461381
H       0.287510     -0.008473     -1.682326
H       2.167185     -0.249266     -0.055123
H      -1.971594      0.915336     -0.731536
