10
Extracted from Q-Chem output
N       1.398168     -0.191038      0.089751
C       0.017379      0.098435      0.037804
C      -0.470406      1.458686      0.093095
N      -0.641070      0.874949      1.183641
C      -0.838037     -0.969016     -0.539949
O      -0.410197     -2.025065     -0.918614
H       1.560190     -1.189102      0.071261
H       1.853661      0.236180      0.882148
H      -0.548628      2.455625     -0.322976
H      -1.917438     -0.724119     -0.571801
