9
Extracted from Q-Chem output
O       1.537656     -2.140302      0.001343
C       0.678067     -1.450387      0.419231
N       0.404242      1.645568      0.594133
C      -0.334598      0.866798     -0.062960
C      -0.471999     -0.566080      0.302728
O       0.202305     -1.005796      1.561906
H       0.389300      2.584061      0.203085
H      -0.920286      1.156495     -0.942425
H      -1.456719     -1.006536      0.174233
