14
Extracted from Q-Chem output
C       1.304962     -0.327348     -0.719428
C      -0.537843     -1.340636     -0.250195
C      -1.403055     -0.163943     -0.201904
C      -0.669673     -0.720488      1.056908
N       0.034814      0.591853      1.280234
C       0.797686      0.833791      0.052555
C      -0.641911      1.125685      0.076892
H       1.514647     -0.088075     -1.763370
H       2.151540     -0.824877     -0.245877
H       0.566053     -1.313937     -0.896593
H      -2.424435     -0.196745     -0.557432
H      -0.986133     -1.257036      1.941934
H       1.477117      1.674119      0.156542
H      -1.077810      2.115426      0.076037
