14
Extracted from Q-Chem output
C      -2.170465     -0.150179     -0.677049
C      -0.783415      0.150561     -0.215236
C       0.311018     -0.779935     -0.128475
C       1.364173     -0.069600      0.345579
N       2.690759     -0.377247      0.580143
O       1.023532      1.210683      0.561049
C      -0.299914      1.332377      0.214300
H      -2.797009      0.741645     -0.648354
H      -2.170517     -0.529973     -1.701175
H      -2.637842     -0.911060     -0.047704
H       0.301433     -1.826929     -0.386397
H       3.097926      0.157013      1.331528
H       2.856921     -1.363711      0.689352
H      -0.731946      2.310378      0.338465
