15
Extracted from Q-Chem output
O       2.439002     -0.179918     -0.118019
C       1.729498     -0.515305      0.796725
C      -0.195526      1.473948     -0.521542
C      -0.661405      0.144684      0.003758
O      -1.896284      0.186351      0.662363
C      -0.306941     -1.123465     -0.679465
C       0.289655     -0.824181      0.681710
H       0.785915      1.396146     -0.985673
H       2.149083     -0.607175      1.818079
H      -0.149741      2.205187      0.286908
H      -0.900625      1.837509     -1.273873
H      -2.570778      0.416203      0.018612
H      -1.052922     -1.905524     -0.717368
H       0.385909     -1.072797     -1.510236
H      -0.146456     -1.328624      1.534227
