15
Extracted from Q-Chem output
O       2.347931     -0.035772     -0.390763
C       1.375934      0.031479      0.502755
C       0.038947      1.240453     -0.170314
C      -0.815433      0.021969      0.098655
O      -2.064882      0.139724      0.682556
C      -0.443586     -1.170634     -0.723651
C       0.221586     -0.933566      0.598819
H       1.398178      0.837908     -0.553292
H       1.596079      0.517923      1.463565
H      -0.046770      2.020741      0.581227
H      -0.044422      1.665395     -1.178882
H      -2.700582      0.376773      0.003265
H      -1.177975     -1.965304     -0.720275
H       0.133374     -1.069496     -1.635478
H       0.121060     -1.617607      1.429922
