12
Extracted from Q-Chem output
C      -1.970526      0.010166     -0.204211
C      -0.608962     -0.401695     -0.606854
C       0.387078      0.158698     -1.412702
C       0.949734     -0.329877     -0.228822
O       0.065613     -1.354653      0.206372
C       1.934561      0.193712      0.741650
H      -2.308908      0.837744     -0.821868
H      -2.645531     -0.840056     -0.322108
H      -1.978180      0.294266      0.849573
H       2.440090      1.062367      0.328576
H       1.435147      0.453677      1.676568
H       2.663281     -0.589003      0.962463
