12
Extracted from Q-Chem output
C      -2.035511      0.022655     -0.261098
C      -0.652704     -0.229694     -0.684860
C       0.424633      0.154832     -1.354556
C       0.902464     -0.392419     -0.101695
O       0.110471     -1.322220      0.370033
C       1.981756      0.167400      0.754211
H      -2.464058      0.778232     -0.918163
H      -2.622885     -0.894163     -0.312026
H      -2.050902      0.384083      0.768282
H       2.391842      1.078668      0.328944
H       1.607808      0.335016      1.764520
H       2.770486     -0.587046      0.815043
