13
Extracted from Q-Chem output
C      -1.557885     -0.677731      0.014915
C      -0.228412      0.003200      0.012816
C       0.009097      1.414384      0.336976
C       0.882583     -0.230564     -0.941811
C       1.784406     -0.537095      0.070008
O       2.852597     -0.911358      0.395243
O       0.651343     -0.250159      1.154910
H      -2.133205     -0.415165      0.903457
H      -1.404237     -1.757395     -0.008479
H      -2.126176     -0.390523     -0.871261
H      -0.118679      1.770621      1.353646
H       0.415997      2.098747     -0.395152
H       0.977459     -0.161786     -2.011718
