9
smiles: [O+:1]1=[C-:2][C:3]1([H:6])[H:7].[O:4]=[C:5]([H:8])[H:9]
O        1.13162500       1.60823200      -0.14759900
C        0.25416100       1.06168600       0.60512600
C        1.55988800       0.35046600       0.44989300
O       -0.87235700      -1.37362300      -0.99745600
C       -1.74304500      -0.75238800      -0.46277800
H        2.32628000       0.46105300       1.20588400
H        1.64768100      -0.46529200      -0.25577000
H       -2.21761300       0.12402300      -0.94426700
H       -2.12015900      -1.01986900       0.54298300
