9
Extracted from Q-Chem output
O       0.886494      1.854005      0.419678
C       0.058357      0.991648      0.186029
C       1.165044      0.017818      0.114624
O      -0.407882     -1.377087     -0.291848
C      -1.338464     -0.552183     -0.227937
H       1.583427     -0.357347      1.040317
H       1.760161     -0.022341     -0.789043
H      -1.778443     -0.116362     -1.136079
H      -1.949186     -0.449672      0.680306
