14
Extracted from Q-Chem output
O       1.951151     -0.039432      0.188130
C       0.951012     -0.173744     -0.804753
C      -0.394858      0.341767     -0.337787
C      -0.651636     -1.205377      1.424114
N      -1.095809     -0.089760      0.624007
C      -0.980267      1.531953     -1.039085
O      -0.419821      2.136087     -1.913835
H       2.178076      0.888910      0.269038
H       1.226433      0.344375     -1.726227
H       0.877640     -1.239566     -1.028449
H       0.163683     -1.790066      0.992041
H      -1.509530     -1.848562      1.623024
H      -0.311609     -0.814565      2.385894
H      -1.980603      1.815839     -0.663221
