14
Extracted from Q-Chem output
O       2.168424     -0.287281      0.167760
C       1.176927      0.117967     -0.726555
C      -0.165344      0.285960      0.005864
C      -0.619063     -0.960722      0.829544
N      -0.134264      0.645725      1.320013
C      -1.286823      0.882742     -0.836638
O      -2.407717      0.463182     -0.887201
H       1.912169      0.094765      1.022716
H       1.424902      1.081257     -1.195164
H       1.092519     -0.625925     -1.523373
H       0.132957     -1.734975      0.714153
H      -1.653009     -1.165076      0.565601
H      -0.642634     -0.694398      1.926740
H      -0.995098      1.793685     -1.397367
