13
Extracted from Q-Chem output
C       2.341380      0.452794      0.756374
N       1.313642      0.770213      0.102990
C       0.466431      1.155239     -0.742033
C      -1.157845     -1.307908      0.361705
C      -1.274273      0.185017      0.580060
O      -0.826537      0.924796     -0.570555
H       2.722090      1.110519      1.532609
H       2.859280     -0.480085      0.549230
H      -0.119163     -1.609362      0.223396
H      -1.554527     -1.840772      1.228156
H      -1.725708     -1.610099     -0.518834
H      -2.314625      0.481215      0.713206
H      -0.707326      0.510536      1.456510
