13
Extracted from Q-Chem output
C       2.095256     -0.191625      0.554331
N       1.370370      0.912161      0.000630
C       0.210398      1.035937     -0.116668
C      -0.690610     -0.840209      0.584515
C      -1.709372      0.289298      0.430581
O      -0.994434      1.395362     -0.305531
H       2.694684      0.142273      1.401614
H       2.728987     -0.647828     -0.206976
H       0.623183     -0.753017      0.785172
H      -0.965049     -1.438224      1.458052
H      -0.747355     -1.500100     -0.285291
H      -2.590708      0.074082     -0.175757
H      -2.011812      0.732508      1.378678
