8
Extracted from Q-Chem output
N       1.366962     -0.269478     -0.330581
N       0.715556      0.973158     -0.092713
C      -0.567962      0.664608      0.103895
C      -0.706521     -0.700159     -0.065154
N       0.495911     -1.241348     -0.260974
H       1.591553      0.478279      0.632689
H      -1.302318      1.420657      0.329340
H      -1.598663     -1.306345     -0.050789
