13
Extracted from Q-Chem output
C      -0.226284     -1.601659      0.789642
C       0.141222      0.896327     -1.833471
O       0.370888      1.746478     -0.712144
C       0.296668      0.956948      0.448314
C      -0.029472     -0.414460     -0.085806
N      -0.112731     -0.435501     -1.347623
H       0.675298     -1.797589      1.375086
H      -1.037501     -1.421892      1.499136
H      -0.461301     -2.477008      0.188168
H      -0.720341      1.260971     -2.402230
H       1.021531      0.895029     -2.485449
H      -0.482300      1.325986      1.127459
H       1.249353      0.962220      0.994145
