10
Extracted from Q-Chem output
N       1.195772      0.410142      0.090864
C       0.856787     -0.703973      0.604960
O       1.038895     -1.658336      1.234557
N      -0.994182     -0.906621     -0.333364
C      -1.458199      0.317268     -0.184608
O      -0.909162      1.365071     -0.652673
H       2.079526      0.788348      0.399023
H       0.266275      1.049367     -0.441548
H      -0.426665     -0.932591     -1.181614
H      -2.327551      0.452070      0.468258
