19
Extracted from Q-Chem output
C       1.623490     -0.830671      0.340142
C       0.887389      0.400822      0.793353
O       1.351941      0.911903      2.016823
C       0.358788      1.388401     -0.201526
C      -0.587701      0.530814      0.612115
C      -1.459707     -0.566634      0.016190
C      -1.535903     -0.612037     -1.505558
H       1.232476     -1.213459     -0.602939
H       1.540293     -1.617213      1.093029
H       2.684443     -0.611336      0.193233
H       2.216548      1.302315      1.869650
H       0.420712      2.438593      0.052864
H       0.483628      1.165834     -1.254196
H      -1.047003      1.065368      1.435192
H      -1.896890      0.336356     -1.908668
H      -2.472039     -0.431511      0.403696
H      -1.129222     -1.539526      0.394122
H      -2.220878     -1.397285     -1.830281
H      -0.566385     -0.817468     -1.964991
