14
Extracted from Q-Chem output
C      -0.658972     -1.272446     -0.625192
C      -1.452788      1.165271      0.317741
C      -0.134974      1.297660      0.551970
C       0.927858      0.612744     -0.124775
C       1.340150     -0.810416      0.081442
O       0.153701     -1.520072      0.384413
H      -1.685729     -1.574549     -0.462694
H      -0.255863     -1.286378     -1.634079
H      -1.803951      0.708312     -0.596444
H      -2.192497      1.611585      0.974771
H       0.149939      2.058297      1.285538
H       1.808530      1.246741     -0.267948
H       2.039736     -0.970190      0.912423
H       1.801120     -1.241264     -0.825283
