14
Extracted from Q-Chem output
O      -1.438554      1.741816      0.403865
C      -0.679819      0.638323      0.271240
C      -1.066452     -0.643334     -0.483681
C       0.174485     -1.470094     -0.432243
C       1.345238     -0.467425     -0.389141
C       0.744870      0.614296      0.418360
H      -0.910709      2.543055      0.325367
H      -0.178589      0.112649      1.313971
H      -1.323700     -0.278084     -1.489627
H      -1.955319     -1.116652     -0.069125
H       0.192658     -2.112588      0.454377
H       1.592913     -0.062642     -1.385516
H       2.263832     -0.873054      0.034151
H       1.244679      1.371520      1.021983
