19
Extracted from Q-Chem output
C       1.621215      1.087812      0.082064
C       0.755682     -0.165419      0.090239
C       1.552778     -1.382630     -0.398696
C      -0.399254     -0.080503     -0.881579
C      -1.605390     -0.790863     -0.387368
C      -1.903946      0.614479      0.099697
O      -1.881130      0.723721      1.485901
H       1.070786      1.952091      0.464680
H       2.508006      0.960064      0.707557
H       1.940996      1.322118     -0.935410
H       0.433032     -0.373365      1.120720
H       2.423638     -1.534885      0.241489
H       1.898719     -1.231713     -1.423369
H       0.953415     -2.294885     -0.374701
H      -1.049735      1.227271     -0.428309
H      -2.298665     -1.170883     -1.132086
H      -1.493449     -1.472014      0.459057
H      -2.778350      1.055979     -0.381365
H      -1.783501      1.646427      1.729152
