13
Extracted from Q-Chem output
N       1.545670     -1.167760     -1.265001
C       1.074127     -0.241146     -0.575094
O       1.639191      0.899813     -0.065357
C       0.408756      1.268607      0.629786
C      -0.255785      0.042189      0.033970
C      -1.582843     -0.226732     -0.538815
N      -1.136261     -0.894717      0.679693
H       2.529285     -1.029812     -1.480785
H       0.547211      1.245353      1.710084
H       0.048238      2.239448      0.291908
H      -1.610602     -0.789439     -1.465280
H      -2.377320      0.496267     -0.397112
H      -0.829666     -1.842071      0.485349
