13
Extracted from Q-Chem output
N       1.661533     -1.345862     -0.973497
C       0.998948     -0.469575     -0.367753
O       1.440820      0.516921      0.455981
C       0.273717      1.341938      0.436038
C      -0.392448      0.601398     -0.701544
C      -1.604087     -0.119011     -0.328790
N      -0.496245     -1.005683      0.096295
H       2.655254     -1.156329     -0.927059
H      -0.213458      1.329331      1.417632
H       0.526852      2.363181      0.145773
H      -2.223054     -0.531166     -1.120364
H      -2.173919      0.248213      0.521082
H      -0.460278     -1.753468     -0.595113
