9
Extracted from Q-Chem output
O      -2.091582     -0.435363     -0.012478
C      -0.798353     -0.106512      0.041542
N       0.157263     -0.995797      0.128910
N       1.280215     -0.293399      0.079363
N       1.063716      1.035142      0.137526
C      -0.302648      1.245241      0.073908
H      -2.168412     -1.393856      0.016374
H       2.166503     -0.699445      0.324983
H       0.693298      1.643989     -0.790129
