16
Extracted from Q-Chem output
C       2.084633      0.203654     -0.114962
N       0.739083     -0.317052     -0.143887
C       0.044213     -0.675127      0.932710
C      -1.357478     -0.320307      0.754119
C      -1.221839      1.021434     -0.020521
C      -0.472695      0.116412     -1.015880
C      -1.461273     -0.974123     -0.667293
H       2.113676      1.263789      0.160684
H       2.542680      0.087476     -1.097726
H       2.672013     -0.357612      0.614050
H       0.528547     -1.145202      1.784575
H      -2.057237     -0.488935      1.567772
H      -0.666540      1.840363      0.450710
H      -2.191058      1.347056     -0.386516
H      -0.154706      0.409864     -2.014669
H      -1.139701     -2.011258     -0.807754
