14
Extracted from Q-Chem output
C      -1.460815     -0.855935     -0.504068
C      -0.639706      0.404316     -0.585028
C      -0.333508      1.203881      0.612742
C       0.806387      0.467194     -0.094702
C       1.332204     -0.675118      0.631294
O       2.639753     -0.707501      0.455257
H      -1.290788     -1.376796      0.436793
H      -2.523024     -0.612610     -0.581537
H      -1.210913     -1.541729     -1.315917
H      -0.773878      0.971264     -1.499931
H      -0.627210      0.803791      1.574454
H      -0.305693      2.283154      0.548666
H       1.490655      1.078351     -0.678941
H       2.985002     -1.461163      0.942592
