14
Extracted from Q-Chem output
C      -1.346048     -0.918421     -0.501706
C      -0.620930      0.399482     -0.579127
C      -0.339747      1.195937      0.631686
C       0.821717      0.549751     -0.114076
C       1.485924     -0.560688      0.537710
O       2.778231     -0.659463      0.397149
H      -1.113701     -1.443858      0.424159
H      -2.424930     -0.753963     -0.542524
H      -1.071615     -1.569268     -1.333937
H      -0.819689      0.973165     -1.477760
H      -0.588811      0.760552      1.591073
H      -0.389444      2.275341      0.588564
H       1.478984      1.194800     -0.692855
H       2.198696     -1.450513      1.040678
