10
Extracted from Q-Chem output
O       2.220929     -1.998658      0.194850
C       1.462360     -1.171416      0.895360
C      -0.452539      2.676854     -0.114228
N      -0.579202      1.564707     -0.460232
N      -0.551674      0.413845     -0.910521
C      -0.749105     -0.619700      0.046731
N       0.190493     -1.221877      0.619168
H       1.717403     -2.479673     -0.483040
H      -1.036649      3.559989      0.051052
H      -1.778288     -0.930283      0.216801
