11
Extracted from Q-Chem output
C      -1.234172     -0.806770     -0.304569
N       0.144480      0.820186      0.953088
C       1.044196      1.472930      0.350726
N       1.681432      0.745477     -0.723596
N       1.148840     -0.373536     -0.768163
C       0.125010     -0.451610      0.277794
H      -1.179017     -1.764823     -0.819258
H      -1.549767     -0.042514     -1.015282
H      -1.969921     -0.869238      0.495284
H       1.353140      2.485574      0.574563
H       0.451955     -1.231675      0.975792
