15
Extracted from Q-Chem output
C      -2.344342     -0.292560      0.604569
C      -1.047797     -0.704060     -1.108899
O      -0.055779      0.233415     -0.918840
C       0.935577     -0.068309     -0.053466
O       0.837743     -0.882428      0.818584
C       2.166453      0.766276     -0.290596
O       3.122585      0.548387      0.699808
H      -2.167795     -0.746085      1.579005
H      -2.066122      0.754613      0.604096
H      -3.358737     -0.455459      0.253000
H      -1.802197     -0.187076     -1.711116
H      -1.595709     -1.087598     -0.012886
H       2.548675      0.507385     -1.286978
H       1.875310      1.820991     -0.320644
H       2.815201     -0.195920      1.231009
