13
Extracted from Q-Chem output
N      -1.207633      1.957739     -0.826976
C      -1.288230      0.031089      0.171610
O      -0.916295     -1.177354      0.227445
C       0.530611     -1.420222      0.028742
C       1.314833     -0.222206      0.517109
C      -0.389612      1.108904     -0.231852
N       0.904593      0.998666     -0.141875
H      -0.677589      2.569523     -1.447384
H      -2.343792      0.211610      0.348428
H       0.654273     -1.580566     -1.042857
H       0.713919     -2.343124      0.575383
H       1.225004     -0.166941      1.614496
H       2.370129     -0.415864      0.308137
