17
Extracted from Q-Chem output
C      -1.739610     -0.984157     -0.947862
C      -1.066515      0.227297     -0.325846
C      -0.330820      0.054841      0.857897
O      -0.038193     -1.189658      1.252086
C       1.804600      1.051343      0.334363
C       1.824480      0.337835     -0.832346
O       1.016378      0.561447     -1.797155
H      -2.178614     -0.711271     -1.906960
H      -1.017062     -1.779474     -1.129736
H      -2.529379     -1.386422     -0.309083
H      -0.137730      0.505392     -1.159326
H      -1.651010      1.145907     -0.317157
H      -0.274972      0.829439      1.610466
H       0.542133     -1.168950      2.016355
H       2.499609      0.811545      1.130928
H       1.329018      2.024009      0.359708
H       2.449948     -0.563992     -0.889491
