14
Extracted from Q-Chem output
C      -1.296681     -0.516354      0.385899
C      -0.879935      0.541831     -0.602224
C       0.366784      1.286386     -0.297685
O       1.521005      0.533362      1.359494
C       1.580160     -0.552595      0.758731
N       1.031554     -0.758257     -0.416221
C      -0.356491     -0.874905     -0.708512
H      -0.946462     -0.464006      1.408450
H      -2.316410     -0.859310      0.268656
H      -1.669033      1.049116     -1.153307
H       0.312976      2.155952      0.347880
H       1.098212      1.355021     -1.088884
H       2.200598     -1.342659      1.206032
H      -0.642585     -1.577839     -1.479919
