13
Extracted from Q-Chem output
C      -1.294757     -0.836681      0.044080
C      -0.086623     -0.090807      0.591391
C       1.146672     -0.165250     -0.286322
O       1.135512      1.156395     -0.898690
C      -0.214700      1.435485      0.479361
H      -2.184189     -0.598970      0.629399
H      -1.148083     -1.920378      0.066967
H      -1.501464     -0.537407     -0.987393
H       0.126803     -0.425764      1.612115
H       1.150107     -0.950319     -1.047952
H       2.076660     -0.208171      0.277557
H       0.533056      1.873909      1.160333
H       0.526969      1.166150     -1.642096
