12
Extracted from Q-Chem output
C      -2.681397      0.393809      0.141257
C      -1.481460     -0.102870      0.167640
C      -0.273525     -0.588242      0.194518
C       0.939294      0.251557      0.059808
C       2.208020     -0.146440      0.668051
O       1.993951     -0.290570     -0.723717
H      -3.226690      0.484217     -0.791201
H      -0.124143     -1.657344      0.316941
H      -3.170389      0.725687      1.049907
H       0.755171      1.310206     -0.103272
H       2.257647     -1.075914      1.229294
H       2.928219      0.614657      0.954447
