12
Extracted from Q-Chem output
C      -2.571031      0.259318      0.211714
C      -1.252069     -0.124274      0.324312
C      -0.082180     -0.503335     -0.066044
C       1.148019      0.239194     -0.189126
C       2.300896     -0.145709      0.644137
O       2.293055     -0.424851     -0.727373
H      -3.023482      0.458967     -0.755030
H      -1.864019     -0.977254      0.856509
H      -3.209780      0.288371      1.084404
H       1.090169      1.286707     -0.488079
H       2.207743     -1.006633      1.299589
H       2.981080      0.635017      0.973929
