12
Extracted from Q-Chem output
C      -1.380450      0.455590      0.778139
C      -0.494285     -0.411038     -0.072291
N       0.515229      0.158776     -0.706485
C       1.973451      0.137975      0.421836
O       2.829959      0.890635      0.342664
H      -1.994610     -0.138258      1.455057
H      -2.039530      1.047664      0.138608
H      -0.777444      1.152961      1.362524
H      -0.921930     -1.334636     -0.461103
H       0.246887     -1.153631      1.139254
H       0.880511     -0.438385     -1.443617
H       1.074615     -0.889528      1.248740
