16
smiles: [C:1]([C:2]([C:3](=[C:4]([H:12])[H:13])[H:14])([H:10])[H:11])([H:7])([H:8])[H:9].[C:5](=[O:6])([H:15])[H:16]
C        1.38734500       0.49144700       0.51117500
C        0.72097900      -0.37576800      -0.55560600
C       -0.21176000      -1.38975600       0.03283300
C       -0.08875400      -2.70236200      -0.08921500
C       -1.72947700       2.52620100      -0.05362400
O       -2.00299100       1.64808300       0.71071600
H        1.99243800      -0.11887100       1.18424100
H        0.64274700       1.01487500       1.11553300
H        2.03605400       1.24327800       0.05828700
H        1.48084300      -0.88500700      -1.15431700
H        0.15911300       0.26799100      -1.24083800
H        0.72617300      -3.14390600      -0.65418700
H       -0.79475400      -3.38455800       0.36863200
H       -1.04212900      -0.99088300       0.61340700
H       -0.72293400       2.61647700      -0.50556400
H       -2.46849700       3.29533200      -0.35002800
