16
Extracted from Q-Chem output
C       1.720486      0.449365      0.195844
C       0.720919     -0.240203     -0.738565
C      -0.465821     -0.642246      0.085855
C      -0.530240     -1.985666      0.410410
C      -1.650801      1.936896      0.199843
O      -0.939527      2.621626     -0.484329
H       2.039297     -0.219886      0.998302
H       1.278629      1.339544      0.644083
H       2.606626      0.755448     -0.360946
H       1.213658     -1.089516     -1.235043
H       0.419495      0.477388     -1.504787
H       0.245490     -2.717975      0.145828
H      -1.328269     -2.358312      1.050535
H      -1.288581     -1.480345     -0.491901
H      -1.468556      1.787908      1.278295
H      -2.554570      1.444243     -0.200996
