13
Extracted from Q-Chem output
C      -1.146692     -0.676931      0.081878
O       0.036050     -1.379779     -0.265191
C       1.147948     -0.643371      0.218971
C       0.717618      0.804042      0.167837
N       0.044120      1.236331     -1.047271
C      -0.755324      0.782251      0.080668
H      -1.505818     -0.966487      1.078802
H      -1.910562     -0.935831     -0.654436
H       1.393339     -0.921807      1.252936
H       2.001458     -0.880491     -0.419780
H       1.278342      1.553975      0.711482
H       0.097762      0.513637     -1.758603
H      -1.398241      1.514460      0.552710
