13
Extracted from Q-Chem output
C      -1.203475     -0.692907      0.232427
O      -0.035336     -1.500234      0.361733
C       1.120146     -0.944594     -0.057451
C       0.614417      0.970758      0.708046
N       0.447488      0.663584     -0.815969
C      -0.685486      0.715587      0.077480
H      -1.795449     -0.830286      1.138601
H      -1.782445     -1.012814     -0.640715
H       1.908182     -0.994496      0.683658
H       1.437799     -1.281139     -1.046310
H       0.830054      2.025180      0.889768
H       0.549439      1.409649     -1.495292
H      -1.406155      1.503575     -0.108959
