13
Extracted from Q-Chem output
C       1.415685     -0.579305      0.067323
C       0.034131      0.011161      0.150787
C      -0.154974      1.428132      0.640575
N      -0.357027      1.020330     -0.833060
C      -1.091777     -0.931028      0.377097
O      -2.161227     -0.856004     -0.179464
H       1.519846     -1.297941     -0.750261
H       2.146383      0.221452     -0.046939
H       1.642233     -1.091869      1.004246
H      -1.175915      1.533723      1.026349
H       0.343101      1.334073     -1.487069
H      -1.281561      0.855483     -1.221938
H      -0.905415     -1.704530      1.146257
