13
Extracted from Q-Chem output
O       1.952966      0.869205      0.092477
C       0.873762      0.223625     -0.532372
C       0.501833     -1.122528      0.119584
C      -1.361827     -0.429510     -0.572603
N      -0.894203     -0.082680      0.843011
C      -0.507741      0.759480     -0.307352
H       1.683815      1.117507      0.981079
H       1.137570      0.109856     -1.584605
H       0.970148     -1.305118      1.086792
H       0.425423     -2.018914     -0.480616
H      -2.416444     -0.211447     -0.752351
H      -1.532686      0.309261      1.530634
H      -0.810781      1.800818     -0.336396
