15
Extracted from Q-Chem output
C       2.349825      0.171228     -0.631803
C       0.838610      0.359124     -0.633568
C       0.228871      0.025090      0.712177
C      -1.923328     -0.793433      0.365629
O      -1.181271      0.253795      0.711121
N      -3.191823     -0.408678      0.361445
H       2.776375      0.414050     -1.605756
H       2.619275     -0.861900     -0.400213
H       2.831149      0.814133      0.109387
H       0.583147      1.390638     -0.892245
H       0.375055     -0.283052     -1.387555
H       0.410671     -1.019124      0.975919
H       0.634346      0.667125      1.497573
H      -3.479541      0.535860      0.588840
H      -3.898242     -1.081560      0.133719
