16
smiles: [C:1]([C:6]#[N:7])([H:8])([H:9])[H:10].[C:2]([C:3]([H:11])([H:12])[H:13])[C:4]([O:5][H:16])([H:14])[H:15]
C       -2.24421400       0.11274200       1.78707800
C        0.70680300      -0.08078800      -0.12179100
C        0.27202200       0.52503600      -1.38039900
C        2.07575000      -0.57122100      -0.12746200
O        2.86277900      -0.34739400      -1.28727100
C       -2.95211800       0.51393400       0.57963400
N       -3.50944500       0.83096700      -0.37082900
H       -1.18801200      -0.03775800       1.56668300
H       -2.34253000       0.88569500       2.54843200
H       -2.66212000      -0.81721000       2.17106200
H       -0.80738700       0.63701100      -1.46892800
H        0.73112400       0.13702400      -2.29525200
H        0.69288400       1.54188700      -1.25808300
H        2.57500500      -0.20619500       0.78082500
H        1.90626900      -1.65064800       0.05762200
H        3.72798500      -0.73937700      -1.16012400
