10
Extracted from Q-Chem output
O       1.670058      0.488923     -1.014906
C       1.442125      0.098542      0.088911
N       0.156311     -0.094157      0.608864
C      -1.049682      0.393216     -0.098754
C      -0.967350     -1.075442     -0.200149
H       2.223995     -0.169678      0.818098
H      -1.764226      0.828010      0.596908
H      -0.774994      1.064950     -0.910603
H      -0.402926     -1.289313     -1.119331
H       0.095372     -0.265632      1.599095
