13
Extracted from Q-Chem output
O       2.028603      0.419590     -1.630919
C       0.965769     -0.100753     -1.432757
C       0.081370     -0.208947      1.520993
C      -0.843904     -0.176887      0.310677
C      -0.246615      0.588349     -0.871620
H       1.026520     -0.707011      1.291087
H       0.818579     -1.179042     -1.668481
H       0.320289      0.802656      1.856649
H      -0.378578     -0.739633      2.355810
H      -1.795381      0.284979      0.583626
H      -1.082329     -1.198985     -0.002150
H       0.026245      1.609234     -0.597018
H      -0.982330      0.643176     -1.682578
