14
Extracted from Q-Chem output
C       2.046622     -0.684646     -0.819934
C       1.684491     -0.864468      0.394803
C       0.770665      0.008238      1.072977
C      -0.202775      0.546551      0.004599
C      -1.646603      0.820241      0.224016
C      -1.200230     -0.251159     -0.734401
H       2.721981     -1.139611     -1.525504
H       0.089402     -0.463487      1.795930
H       1.303969      0.797756      1.601441
H       1.382564      0.231897     -1.147282
H      -2.036463      1.744499     -0.188163
H      -2.107656      0.527955      1.161422
H      -1.316364     -1.291197     -0.440824
H      -1.319701     -0.084967     -1.798107
