13
Extracted from Q-Chem output
C      -1.552456     -0.700884      0.006564
C      -0.443509      0.137798     -0.589589
O       0.022297      1.095557      0.309476
C       1.456205      0.999705      0.385183
C       1.892168     -0.215773     -0.364713
N       0.777039     -0.643700     -0.877705
H      -2.401502     -0.063407      0.252581
H      -1.889573     -1.459053     -0.704028
H      -1.201963     -1.189417      0.916426
H      -0.784068      0.613856     -1.521166
H       0.729647     -1.461538     -1.466139
H       1.757611      0.946618      1.434110
H       1.922973      1.887453     -0.058141
