11
Extracted from Q-Chem output
C       1.422279      0.104930      0.228761
C       0.075969      0.664236      0.281811
C      -0.970659      0.127359     -0.648659
C      -0.715754     -1.342335     -0.299087
O       0.460374     -0.471049      1.115198
H       1.702588     -0.538749     -0.596553
H       2.219191      0.629992      0.744381
H      -0.080537      1.587152      0.830952
H      -1.956313      0.524899     -0.389101
H      -0.758046      0.356621     -1.695403
H      -1.463495     -1.628419      0.457179
