11
Extracted from Q-Chem output
C       1.108424     -0.231424     -0.038218
C       0.101556      0.864463      0.354412
C      -0.940276      0.234872     -0.587585
C      -0.263499     -0.867945      0.245709
O      -0.386175     -0.008235      1.433400
H       1.477362     -0.244792     -1.063998
H       1.878701     -0.440274      0.701482
H       0.276312      1.911552      0.593520
H      -1.978991      0.437946     -0.334530
H      -0.742672      0.260948     -1.659462
H      -0.530743     -1.917112      0.355271
