11
Extracted from Q-Chem output
C       1.342951      0.039890      0.088046
C       0.101372      0.772863      0.281995
C      -0.952382      0.162932     -0.602672
C      -0.447711     -1.162062     -0.042545
O       0.053126     -0.299414      1.273442
H       1.642397     -0.461668     -0.817632
H       2.115986      0.227322      0.826051
H       0.092712      1.785333      0.676240
H      -1.961614      0.475039     -0.306821
H      -0.813165      0.322580     -1.675022
H      -1.205739     -1.861817      0.314872
