15
Extracted from Q-Chem output
C       2.106590      0.046493     -0.230068
C       0.696183     -0.518578     -0.082609
C      -0.285010      0.607768     -0.307401
C      -1.999447     -0.289275     -0.199080
O      -0.351021      1.579237      0.589851
H       2.263536      0.857108      0.481353
H       2.274778      0.437933     -1.236053
H       2.850247     -0.728758     -0.043629
H       0.524487     -1.326309     -0.798755
H       0.553083     -0.909593      0.926644
H      -0.363364      0.900629     -1.368129
H      -2.009895     -0.632202     -1.228856
H      -1.927867     -1.114560      0.504403
H      -2.922100      0.282566     -0.033391
H      -1.411940      0.784813      0.365913
