13
Extracted from Q-Chem output
N       3.392878     -0.626715     -1.067727
C       2.501912      0.059297     -0.798920
C       1.389500      0.836987     -0.460053
C      -0.139075     -1.019430      0.147221
C      -1.518830     -0.638706      0.591813
C      -1.012799      0.804221      0.350326
N       0.275004      0.212014     -0.053203
H       1.380512      1.911403     -0.511325
H       0.431445     -1.923809      0.001500
H      -2.341079     -0.947360     -0.056356
H      -1.774622     -0.864769      1.628679
H      -1.480796      1.349792     -0.467328
H      -0.910590      1.435336      1.231406
