11
Extracted from Q-Chem output
C       2.827117      0.193501     -0.579582
C       1.661806      0.042657     -0.344447
C       0.288989     -0.078953     -0.042314
C      -0.632312      0.829371      0.522303
C      -1.955739      0.119971      0.711688
C      -1.645543     -1.075884      0.117029
O      -0.332134     -1.202813     -0.293991
H       3.863206      0.320814     -0.791140
H      -0.346369      1.767784      0.974834
H      -1.416885      1.044361     -0.324147
H      -2.214358     -1.978616     -0.038635
