11
Extracted from Q-Chem output
N       2.544023      0.558778     -0.550195
C       1.621860     -0.110162     -0.426055
C       0.489016     -1.037874     -0.391697
C      -0.560844      0.565823      1.399414
C      -0.945677      0.959213      0.024643
O      -0.743532     -0.489190      0.063671
H       0.725337     -1.862418      0.279544
H       0.328155     -1.422948     -1.401829
H      -1.494129      0.303158      1.918781
H      -1.970909      1.153997     -0.288180
H      -0.210729      1.470658     -0.594516
