11
Extracted from Q-Chem output
N       2.879956     -0.393063      0.892020
C       1.909389     -0.476708      0.283290
C       0.683216     -0.677136     -0.465944
C      -0.192773      0.914949      0.444797
C      -1.498812      0.639661     -0.135931
O      -0.906936     -0.609123      0.195198
H       0.551015     -1.756391     -0.596787
H       0.710919     -0.171261     -1.423195
H      -0.230106      1.025445      1.532456
H      -2.371673      0.769492      0.497937
H      -1.685553      0.799986     -1.196854
