11
Extracted from Q-Chem output
C      -1.586981     -0.009596     -0.049199
C      -0.104322      0.114586     -0.032392
C       0.719539      1.224511      0.180121
N       2.012461      0.677004      0.044942
N       2.000012     -0.628025     -0.183585
N       0.723838     -0.911263     -0.299096
H      -2.014249      0.892541      0.383589
H      -1.972828     -0.106885     -1.066522
H      -1.930862     -0.868767      0.530165
H       1.802459      1.300271      1.015396
H       0.479399     -1.841807     -0.604147
