15
Extracted from Q-Chem output
O       0.616239     -2.438427      0.605945
C       0.373423     -1.357247      0.132594
C      -1.030622     -0.893004     -0.168758
C      -1.301307      0.493823      0.419979
C      -0.183232      1.451360      0.123543
C       1.046734      1.059893     -0.180272
C       1.475111     -0.378931     -0.222899
H      -1.118472     -0.833225     -1.259809
H      -1.735739     -1.641999      0.189510
H      -2.241765      0.883333      0.023556
H      -1.441981      0.418641      1.504102
H       1.829245     -0.642308     -1.227373
H      -0.407165      2.512032      0.171754
H       1.810502      1.802208     -0.388259
H       2.317433     -0.563788      0.447532
