15
Extracted from Q-Chem output
O       0.684787     -2.605263      0.670167
C       0.457277     -1.468585      0.324853
C      -0.913984     -1.026040     -0.141049
C      -1.187985      0.437811      0.186090
C      -0.093177      1.339852     -0.373351
C       1.275957      0.820533     -0.055024
C       1.523240     -0.442947      0.286737
H      -0.938933     -1.178233     -1.227224
H      -1.655323     -1.697176      0.292675
H      -2.163690      0.738857     -0.200213
H      -1.227153      0.560553      1.272947
H      -0.188609      1.425313     -1.463505
H      -0.195972      2.356768      0.013238
H       2.101266      1.524278     -0.115806
H       2.522299     -0.785721      0.529466
