17
smiles: [C:1]([C:2]([C:3](=[O:4])[C:5]([C:6](=[O:7])[H:17])([H:15])[H:16])([H:11])[H:12])([H:8])([H:9])[H:10].[H:13][H:14]
C       -2.17012900      -0.49891500      -0.50597500
C       -0.97779300       0.43933900      -0.51393900
C        0.30633900      -0.21583900      -0.95727700
O        0.36741900      -1.35928700      -1.32787900
C        1.56210800       0.64222700      -0.92505500
C        2.12190600       0.84616700       0.46218300
O        1.59045900       0.49551300       1.47777500
H       -3.06993900       0.02697500      -0.18490100
H       -2.34729700      -0.91632100      -1.49732700
H       -1.99868700      -1.33352300       0.17378100
H       -1.14948100       1.29546200      -1.17751100
H       -0.79526000       0.86545900       0.47771000
H       -0.32949900      -2.08274500       2.14059200
H        0.06333800      -1.45034900       2.12882600
H        1.37841800       1.63727700      -1.34653000
H        2.33499400       0.16939200      -1.53597900
H        3.10152300       1.36507700       0.48798800
