17
Extracted from Q-Chem output
C      -2.373515     -0.535460     -0.397094
C      -1.167536      0.360771     -0.638153
C       0.098960     -0.159649      0.020656
O       0.407294     -1.412329     -0.557561
C       1.262512      0.811501     -0.148000
C       2.541104      0.351812      0.489164
O       2.695034     -0.718658      1.018949
H      -3.263463     -0.134344     -0.884622
H      -2.192236     -1.537662     -0.785053
H      -2.589021     -0.623491      0.670764
H      -0.978976      0.454747     -1.712634
H      -1.366480      1.369031     -0.261565
H      -0.088829     -0.287430      1.097126
H       1.136912     -1.782724     -0.050986
H       1.023171      1.798613      0.264353
H       1.471555      0.973629     -1.213136
H       3.383513      1.071643      0.447377
