14
Extracted from Q-Chem output
C       1.680341      0.382752     -0.252513
C       0.350118      0.219834      0.459017
C      -0.369925     -1.117137      0.307423
C      -1.744189     -0.091100     -0.250734
O      -2.910853     -0.367831     -0.408729
C      -0.845243      0.970520     -0.060591
H       1.586434      0.098879     -1.304527
H       2.023181      1.418435     -0.218332
H       2.449263     -0.244902      0.202799
H       0.463153      0.443397      1.527542
H      -0.801701     -1.537844      1.212643
H       0.093559     -1.901057     -0.292856
H      -1.067629      2.033440      0.001407
H      -0.857370     -0.405073     -1.052560
