11
Extracted from Q-Chem output
O      -2.345779      0.511788     -1.221018
C      -1.758484     -0.057560     -0.345056
C      -0.404708     -0.708633     -0.511293
C       0.523236     -0.358032      0.622822
C       1.547086      0.441735      0.476976
N       2.567404      1.084436      0.308769
H       2.483421      2.090009      0.429523
H      -2.197536     -0.134199      0.672919
H      -0.563738     -1.793095     -0.533152
H       0.004129     -0.413951     -1.477420
H       0.342258     -0.756933      1.613862
