11
Extracted from Q-Chem output
O      -0.544923      1.408033     -0.786621
C      -0.937463      0.335385     -0.242578
C      -0.339810     -1.000932     -0.490086
C       0.435100     -0.635309      0.768355
C       1.345987      0.341517      0.571858
N       1.762247      1.325353      0.055434
H       0.678762      1.707224     -0.356615
H      -1.755587      0.377708      0.485310
H      -0.998053     -1.852724     -0.352383
H       0.256579     -1.070938     -1.394659
H       0.136889     -0.969491      1.748720
