19
Extracted from Q-Chem output
C       1.719514     -1.185485     -0.794312
C       1.094606     -1.053946      0.575629
O       1.776908     -0.895559      1.558403
C      -0.022033      1.953093      0.074460
C      -1.332124      1.177325      0.144021
C      -1.240246     -0.290939     -0.269885
C      -0.413171     -1.172796      0.672192
H       2.776285     -1.420970     -0.689022
H       1.626298     -0.234953     -1.324876
H       1.217162     -1.945451     -1.395387
H       0.724182      1.563857      0.769532
H      -0.180874      3.002841      0.326813
H       0.403232      1.921206     -0.932393
H      -1.732516      1.231348      1.161795
H      -2.070620      1.667398     -0.497134
H      -0.853174     -0.364211     -1.291760
H      -2.252259     -0.702088     -0.305965
H      -0.637953     -2.223789      0.455092
H      -0.688624     -0.992705      1.713164
