19
Extracted from Q-Chem output
C       1.601325     -0.829828     -0.887191
C       0.851259     -0.505710      0.383957
O       1.593058     -0.423513      1.489573
C       0.241528      1.363413      0.112701
C      -1.257289      1.177294      0.201922
C      -1.549309     -0.252086     -0.251936
C      -0.540864     -1.117843      0.489443
H       2.464324     -0.176068     -0.997889
H       0.978149     -0.787458     -1.781731
H       1.969994     -1.851378     -0.761366
H       1.035288      0.669442      1.000519
H       0.616202      2.168320      0.764956
H       0.615453      1.558732     -0.889012
H      -1.583344      1.300308      1.238529
H      -1.800166      1.914946     -0.393507
H      -1.404370     -0.336861     -1.333738
H      -2.576864     -0.553111     -0.041587
H      -0.496664     -2.137270      0.097917
H      -0.787133     -1.173663      1.551282
