11
smiles: [C:5](=[O:6])([H:10])[H:11].[O:1]=[C:2]1[N:3]([H:7])[C:4]1([H:8])[H:9]
O        0.83912800      -1.94098000      -1.63173500
C        0.56825200      -1.36050200      -0.62982800
N        0.94776100      -0.34618300       0.18245500
C       -0.19338100      -1.22887800       0.61522800
C       -0.68155100       1.98962000      -0.31978600
O       -1.69429100       1.60082300       0.18329900
H        1.83763700      -0.32998300       0.66074100
H       -0.00914400      -1.97848400       1.37969200
H       -1.14807000      -0.72041800       0.67569800
H       -0.43937400       1.78570900      -1.38044600
H        0.06751400       2.57396600       0.24822700
