15
Extracted from Q-Chem output
C       1.405125      0.297347      1.059362
C       0.373088      0.520692     -0.011708
C      -0.369035     -0.714851     -0.461037
C      -1.311511     -1.240249      0.573183
O      -1.537037     -2.501220      0.300571
C      -0.249999      1.829145     -0.173080
O       0.767560      1.393524     -1.065265
H       2.159028     -0.415835      0.717479
H       0.932378     -0.108679      1.956510
H       1.905236      1.230805      1.315649
H      -1.019072     -0.450047     -1.306825
H       0.323409     -1.484628     -0.825516
H      -2.175339     -2.838159      0.938126
H      -1.245766      1.903010     -0.601951
H       0.030481      2.641015      0.492087
