15
Extracted from Q-Chem output
C      -0.578335     -0.913438     -1.087310
C       0.057977     -0.078650      0.035842
C      -0.946475      0.126596      1.181202
C       2.536903     -0.542543      0.644285
C       1.275484     -0.806598      0.566019
C       0.462036      1.231316     -0.499301
C       0.762218      2.301425     -0.942198
H       0.131209     -1.073157     -1.898318
H      -1.453127     -0.397072     -1.484393
H      -0.893565     -1.884739     -0.700703
H      -1.261692     -0.838847      1.582232
H      -0.501324      0.711499      1.985217
H      -1.827031      0.653223      0.811177
H       1.152441     -1.806342      1.008609
H       1.044647      3.250684     -1.332098
