15
Extracted from Q-Chem output
C      -0.902684     -0.712141     -1.060940
C      -0.039763     -0.010605      0.004984
C      -0.874869      0.261557      1.270502
C       1.104852     -0.871887      0.350654
C       2.012535     -1.595951      0.639913
C       0.457604      1.267748     -0.533778
C       0.828710      2.316329     -0.974857
H      -0.318258     -0.911082     -1.958319
H      -1.748427     -0.076661     -1.326397
H      -1.276567     -1.658450     -0.668113
H      -1.250133     -0.679454      1.674574
H      -0.270566      0.753867      2.031313
H      -1.719319      0.905884      1.022936
H       2.825577     -2.234148      0.893229
H       1.171305      3.244992     -1.365702
