15
Extracted from Q-Chem output
C      -0.519544     -0.869579     -0.962156
C       0.092972      0.001474      0.166096
C      -1.007810      0.293948      1.185925
C       1.440089     -0.378324      1.318010
C       1.393315     -1.341100      0.526114
C       0.622008      1.217494     -0.439691
C       1.009967      2.216525     -0.972713
H       0.197176     -1.089549     -1.751917
H      -1.337322     -0.296280     -1.401567
H      -0.926571     -1.799358     -0.563201
H      -1.302384     -0.629412      1.685309
H      -0.664709      1.003324      1.933670
H      -1.877248      0.705191      0.665577
H       1.467955     -2.209096     -0.093324
H       1.373477      3.108098     -1.425872
