15
Extracted from Q-Chem output
C       2.184552      0.083748     -0.227820
C       0.944188     -0.124363      0.537310
O      -1.252141      1.497923     -1.733950
C      -1.564376      0.951758     -0.710585
C      -1.462544     -0.527105     -0.465931
C      -0.359151     -0.864441      0.534973
C       0.167470      0.121490      1.535918
H       2.842702      0.798342      0.265663
H       2.715265     -0.862889     -0.350719
H       1.943616      0.454303     -1.226728
H      -1.946612      1.549425      0.144055
H      -2.426638     -0.871766     -0.074383
H      -1.281871     -1.027865     -1.419631
H      -0.355115     -1.924434      0.798006
H      -0.025129      0.647201      2.455120
