18
Extracted from Q-Chem output
C      -2.541835     -0.135623     -1.071118
C      -1.492241     -0.018069      0.025640
C      -0.125670     -0.538022     -0.408743
C       0.911929     -0.407826      0.681557
C       2.415833     -0.298263      0.327796
C       1.645062      0.837078      0.849240
N       1.554122      2.045244      1.171101
H      -3.510088      0.239538     -0.735628
H      -2.252341      0.437744     -1.955337
H      -2.677058     -1.175215     -1.380493
H      -1.388578      1.025310      0.337168
H      -1.821993     -0.570370      0.911725
H      -0.202557     -1.587011     -0.715194
H       0.210648      0.019638     -1.289850
H       0.700179     -0.963917      1.591445
H       2.683337     -0.298269     -0.723795
H       2.452531      2.513955      1.054307
H       3.126170     -0.795302      0.978067
