16
Extracted from Q-Chem output
C       1.906726      0.305434     -0.097337
N       0.737643     -0.534779     -0.266074
C      -0.142166     -0.819394      0.902923
C      -0.791803      0.435892      1.377108
C      -0.916336      1.137265      0.049432
C      -0.488498     -0.005606     -0.890969
C      -1.233048     -1.155899     -0.185482
H       1.724087      1.288023      0.356302
H       2.367005      0.460796     -1.074798
H       2.626889     -0.224572      0.527596
H       0.197081     -1.558008      1.624355
H      -2.286146     -1.015022      0.054510
H      -0.260710      2.015229      0.044310
H      -1.929177      1.520690     -0.095071
H      -0.486587      0.137923     -1.970655
H      -1.032678     -2.144052     -0.593829
