16
Extracted from Q-Chem output
C       1.929350      0.390729     -0.045386
N       0.840562     -0.528356     -0.309573
C      -0.024609     -0.937636      0.800590
C      -1.083023      0.109879      1.157699
C      -0.933543      1.068423     -0.064072
C      -0.392662     -0.043949     -0.965594
C      -1.167959     -1.116558     -0.150940
H       1.667461      1.250858      0.583343
H       2.321985      0.761109     -0.994563
H       2.731211     -0.155836      0.453904
H       0.318818     -1.655727      1.534736
H      -2.069854     -0.586114      0.556728
H      -0.268672      1.912580      0.119225
H      -1.901847      1.449553     -0.386235
H      -0.371880      0.039250     -2.051343
H      -1.612430     -2.071897     -0.404205
