14
Extracted from Q-Chem output
C      -1.550710      1.085449     -0.591692
C      -0.942125     -0.242397     -0.142631
C       0.430082     -0.090325      0.452558
C       1.506735     -0.572264     -0.108436
C       2.556012     -1.051609     -0.708779
O       0.523164      0.632847      1.617094
H      -0.931411      1.549519     -1.360559
H      -2.549644      0.932315     -1.003088
H      -1.637671      1.793938      0.234262
H      -1.593774     -0.721310      0.599722
H      -0.875933     -0.930633     -0.985292
H       3.121098     -0.460431     -1.423041
H       2.911815     -2.058048     -0.510298
H      -0.340947      0.662912      2.032911
