16
smiles: [C:1](/[C:2](=[N:3]\[H:12])[H:11])([H:8])([H:9])[H:10].[C:4]([C@@:5]1([H:14])[C:6]([H:15])([H:16])[O:7]1)[H:13]
C       -2.25574100      -0.52023600       0.49808100
C       -1.19225900      -0.11443200       1.47209400
N       -0.33135100      -0.85240500       2.02733200
C        0.54854900       1.45928100      -0.97287400
C        1.48163800       0.56832200      -1.52072200
C        1.99397100      -0.10849600      -0.24614500
O        1.33182200      -0.82255700      -1.22369000
H       -2.13731200       0.02711200      -0.44031200
H       -3.24347100      -0.26631900       0.89088400
H       -2.22220000      -1.59068600       0.29002600
H       -1.16522500       0.94904900       1.72758000
H       -0.43864900      -1.82210800       1.72570000
H        0.93443400       2.47395100      -1.18136100
H        2.23149000       0.75825000      -2.28712900
H        3.07818100      -0.18651300      -0.21142300
H        1.47678800       0.00307200       0.70020600
