19
Extracted from Q-Chem output
C      -2.044337     -0.166521      0.540674
C      -1.586334     -0.211347     -0.901517
C      -0.251762      0.161751     -1.494842
C       0.981077      0.847960     -0.929268
C       1.269930      0.642151      0.555940
C       1.637128     -0.787107      0.928286
C      -0.588215     -1.254010     -1.260558
H      -2.315294      0.850593      0.831759
H      -2.919540     -0.806057      0.666273
H      -1.277329     -0.519733      1.228337
H      -2.391785     -0.064110     -1.614762
H      -0.403586      0.419922     -2.543009
H       1.844391      0.505742     -1.510593
H       0.880158      1.919968     -1.122226
H       2.095803      1.306536      0.825848
H       0.414415      0.980419      1.146848
H       1.821944     -0.880040      2.000279
H       2.538398     -1.108102      0.400884
H       0.850175     -1.498476      0.659642
