13
Extracted from Q-Chem output
O      -1.574817      1.225864      0.756977
C      -1.024825      0.007784      0.416494
C      -1.168657     -0.564039     -1.021505
C       0.103518      0.018507     -0.531529
O       0.805647      1.017643     -0.939376
C       2.061541     -0.159228     -0.057211
O       2.418173      0.106864      1.022216
H      -0.956803      1.914503      0.487708
H      -1.094684     -0.733817      1.204895
H      -1.317372     -1.634602     -1.082228
H      -1.687069      0.027449     -1.767831
H       0.981426     -0.934633     -0.191811
H       2.497205     -0.242190     -1.049459
