11
Extracted from Q-Chem output
C      -1.219472     -0.547757     -0.600006
C      -0.170046      0.350651     -0.015376
C       1.160422     -0.075370      0.095173
C       2.284827     -0.587982     -0.183592
C      -0.538081      1.625147      0.495552
N      -0.871554      2.660145      0.876516
H      -1.456322     -1.378898      0.067837
H      -2.138027      0.007712     -0.783329
H      -0.847904     -0.970330     -1.536954
H       0.911089      0.046639      1.221083
H       2.996812     -1.196291      0.348743
