11
Extracted from Q-Chem output
O       2.269188     -1.025802     -0.571064
N       1.599687     -0.088800     -0.050219
C       0.323678      0.007170      0.001696
C      -0.680299      0.978162      0.542872
O      -1.723883      0.110628      0.064729
C      -0.788923     -0.852508     -0.473926
H       2.133185      0.676797      0.376885
H      -0.711958      1.962407      0.064721
H      -0.708534      1.095240      1.631001
H      -0.871578     -1.832692      0.004533
H      -0.877641     -0.963280     -1.558629
