11
Extracted from Q-Chem output
C      -1.665660      0.153708      0.283620
C      -0.291312     -0.015855      0.543716
C       0.486136      0.440763     -0.545521
N       1.620108     -0.359122     -0.395365
N       1.570827     -1.022072      0.763937
N       0.469625     -0.792531      1.380723
H      -0.821225      0.600778     -1.040181
H      -2.397096      0.360302      1.059920
H      -2.056925     -0.419250     -0.547517
H       0.661965      1.501043     -0.705980
H       2.454855     -0.434375     -0.947057
