14
smiles: [C:1]([C@@:2]1([H:9])[C:3]([H:11])=[N+:4]1[C-:5]([H:12])[H:14])([H:6])([H:7])[H:8].[H:10][H:13]
C       -1.70932700       0.40009300      -0.53920300
C       -0.69455100       0.65491900       0.54279400
C       -0.03125200      -0.44706600       1.27303200
N        0.67933600       0.20199000       0.36481200
C        1.75322600       0.54153700      -0.26634000
H       -2.71332500       0.44373400      -0.11207900
H       -1.64917300       1.14869100      -1.33299500
H       -1.56306700      -0.59212400      -0.96670600
H       -0.72683200       1.66423300       0.96692900
H        0.80735600      -2.41515300      -0.34050900
H        0.24412700      -0.62970200       2.29999200
H        2.69240200       0.07854700       0.00030100
H        1.30527200      -2.57707900      -0.86985400
H        1.67207700       1.24452000      -1.08089400
