15
Extracted from Q-Chem output
C      -2.123442      0.420591      0.125920
C      -1.196217     -0.448154     -0.711756
N       0.188791     -0.023174     -0.654192
C       1.015821     -0.406689      0.351838
O       0.663551     -1.167985      1.231312
C       2.419604      0.153205      0.302117
H      -3.151745      0.060507      0.055979
H      -2.103598      1.459163     -0.211920
H      -1.821219      0.390719      1.173256
H      -1.232957     -1.479149     -0.358640
H      -1.504054     -0.446187     -1.759609
H       0.513704      0.662340     -1.310387
H       2.574562      0.880598     -0.495166
H       3.116536     -0.674164      0.167601
H       2.640662      0.618379      1.262065
