15
Extracted from Q-Chem output
C      -2.252863      0.449420      0.268375
C      -1.278299     -0.372788     -0.560194
N       0.069969      0.142974     -0.454937
C       0.983586     -0.595723      0.035143
O       1.181530     -1.755802      0.512897
C       2.345639     -0.140755      0.189193
H      -3.271283      0.072854      0.154079
H      -2.235684      1.495306     -0.043740
H      -1.989636      0.407066      1.326892
H      -1.297741     -1.422539     -0.238319
H      -1.578992     -0.350676     -1.611708
H       1.312894      1.296362     -0.585708
H       3.092414     -0.484602     -0.517788
H       2.688870      0.142053      1.178148
H       2.133349      1.403647     -0.432266
