16
Extracted from Q-Chem output
C      -0.480618      1.380301     -0.740567
C      -0.353344     -0.081600     -0.370977
C      -1.470836     -0.969948     -0.862070
C       0.877070     -0.657347     -0.024779
C       1.815683      0.057860      0.865974
O       0.958312     -0.271500      1.915734
H       0.289477      1.999448     -0.284074
H      -1.450904      1.767419     -0.425556
H      -0.415149      1.502838     -1.825422
H      -0.183316     -0.133122      0.940184
H      -2.435836     -0.630746     -0.479093
H      -1.332742     -2.006411     -0.551736
H      -1.532971     -0.948157     -1.954153
H       0.983849     -1.736954     -0.038651
H       2.802959     -0.411059      0.937205
H       1.937742      1.128912      0.667240
