16
Extracted from Q-Chem output
C      -2.106594      0.206494     -0.273774
C      -1.080733      0.382984      0.811250
N      -0.656325     -0.776055      1.625667
C       0.258284     -0.198973      0.694640
C       1.135670     -0.672396     -0.276407
C       1.943001      0.393649     -0.908454
O       2.644160      0.476042      0.300887
H      -2.047016      1.021084     -0.997819
H      -3.114636      0.206106      0.146726
H      -1.952761     -0.732162     -0.811497
H      -1.182402      1.289641      1.398997
H      -1.072300     -1.631139      1.268906
H       1.397573      0.401422      0.995092
H       1.537270     -1.680171     -0.273200
H       2.564285      0.069454     -1.746983
H       1.376571      1.290990     -1.183211
