10
Extracted from Q-Chem output
O       1.522502      0.509284      0.598188
C       1.470160     -0.651308     -0.001515
C       0.314317      0.409135     -0.492375
C      -1.001023     -0.293436     -0.218247
N      -0.810638      1.062050      0.214466
H       1.257017     -1.474077      0.723077
H       0.565934      0.836358     -1.447259
H      -1.631766     -0.443280     -1.087583
H      -1.036382     -1.089782      0.515275
H      -0.651874      1.116557      1.212467
