14
Extracted from Q-Chem output
C       2.448363      0.204169      0.574674
N       1.059576      0.596566      0.558485
C       0.042041     -0.099120      0.212161
O      -0.206542     -1.285505     -0.365386
C      -1.332026     -0.523690     -0.975868
C      -2.327416     -0.185434      0.048932
C      -1.108259      0.719751     -0.061018
H       3.024597      0.856329     -0.083386
H       2.855573      0.291080      1.582798
H       2.563557     -0.827519      0.235676
H      -1.407581     -0.618978     -2.049614
H      -2.463282     -0.861939      0.888630
H      -3.242790      0.254943     -0.329105
H       0.125072      1.528061      0.328800
