14
Extracted from Q-Chem output
N       1.147399     -1.884378     -0.401466
C       0.519050     -0.711211     -0.437742
O       1.168755      0.265103     -1.038975
C       0.423508      1.499571     -0.829049
C      -0.942023      1.049153     -0.348508
C      -1.678850      0.038361     -1.115436
C      -0.757498     -0.407096      0.074978
H       2.019835     -1.999004     -0.884991
H       0.405304      2.013757     -1.789598
H       0.985268      2.088058     -0.100777
H      -1.455673      1.704223      0.348974
H      -1.206813     -0.183922     -2.080438
H       0.647005     -2.698947     -0.100062
H      -1.155166     -0.903757      0.951973
