16
Extracted from Q-Chem output
C       1.643734     -1.060307      0.104096
C       1.391379      0.251802      0.108482
N       2.338585      1.252319     -0.036958
O       0.179489      0.827537      0.303552
C      -0.892807     -0.012595      0.608766
C      -1.637537     -0.661322     -0.510598
C      -2.233260      0.504932      0.235020
H       2.653888     -1.409411     -0.052278
H       0.866717     -1.789283      0.261958
H       3.180106      0.963333     -0.504532
H       1.960566      2.113144     -0.397146
H      -0.772005     -0.548587      1.544494
H      -1.265272     -0.473516     -1.508811
H      -2.046182     -1.650759     -0.353029
H      -2.257392      1.458257     -0.275382
H      -3.054622      0.327062      0.915734
