16
Extracted from Q-Chem output
C       1.862067     -0.883176     -0.048152
C       1.333856      0.456353     -0.053844
N       2.323882      1.264951     -0.334625
O       0.103346      0.918689      0.119032
C      -0.877946     -0.011851      0.523144
C      -1.713252     -0.651907     -0.531382
C      -2.280780      0.435180      0.345907
H       2.372915     -1.104202      0.887535
H       1.240173     -1.705077     -0.392967
H       2.904211      0.148082     -0.478514
H       2.295829      2.242381     -0.057431
H      -0.591259     -0.582007      1.398027
H      -1.489215     -0.391507     -1.557263
H      -2.030174     -1.674308     -0.375362
H      -2.422506      1.407581     -0.106385
H      -3.000401      0.174759      1.109772
