17
Extracted from Q-Chem output
C       2.037032      0.063618      0.002590
C       0.545870     -0.143787     -0.061904
C      -0.005134     -1.327429      0.204137
C      -1.438953     -1.739977      0.133623
C      -1.584858      1.410620     -0.088708
C      -0.215070      1.058744     -0.514266
O      -0.133496      2.205150      0.424749
H       2.304536      0.866961      0.694437
H       2.433494      0.349303     -0.976073
H       2.547334     -0.843157      0.325682
H       0.685406     -2.120998      0.485897
H      -2.104766     -0.899396     -0.043434
H      -1.737629     -2.215723      1.071064
H      -1.573202     -2.486640     -0.654474
H      -1.941670      2.167631     -0.801415
H       0.177771      1.442168     -1.459839
H      -0.112688      1.840350      1.317660
