17
Extracted from Q-Chem output
C       2.165530      0.031993      0.048789
C       0.685133     -0.154336      0.015479
C       0.039572     -1.243347      0.406048
C      -1.440599     -1.303428      0.282881
C      -1.614606      0.795610     -0.115910
C      -0.158778      0.999721     -0.489156
O       0.215870      2.225726      0.132366
H       2.420291      0.911506      0.642105
H       2.552131      0.207041     -0.959041
H       2.668411     -0.839874      0.466777
H       0.554910     -2.113413      0.798592
H      -1.997809     -1.242127      1.211384
H      -1.777485     -2.186997     -0.276085
H      -1.800533     -0.546753     -0.521266
H      -2.289335      0.890798     -0.985038
H       0.049681      1.160832     -1.555814
H      -0.311515      2.268161      0.939740
