11
Extracted from Q-Chem output
O       2.199272     -0.082108      0.328040
C       0.876603      0.067197      0.309759
C       0.138645     -0.483825     -0.875177
N      -1.206172     -0.122815     -0.507792
C      -1.160278      0.512049      0.676332
C       0.103936      0.675881      1.262471
H       2.488922      0.330071      1.153553
H       0.260301     -1.565399     -0.970947
H      -2.027327     -0.317093     -1.050586
H      -2.110185      0.850003      1.084415
H       0.448914     -0.009422     -1.809211
