11
Extracted from Q-Chem output
O       2.170704     -0.298624      0.373784
C       0.863526      0.001186      0.210232
C       0.019075     -0.735243     -0.706247
N      -1.229030     -0.352014     -0.407829
C      -1.180012      0.604029      0.617844
C       0.084025      0.863472      1.064218
H       2.477066      0.314188      1.053356
H       0.273847     -1.469528     -1.454751
H      -2.024991     -0.545293     -0.992797
H      -2.124908      1.023630      0.937301
H       0.680078      0.510784     -0.931512
