15
smiles: [H:9][H:10].[O:1]=[C:2]1[N+:3]([H:8])=[C-:4][C:5]([H:11])([H:12])[C:6]([H:13])([H:14])[N:7]1[H:15]
O        3.00901600      -0.25943600       0.01303800
C        1.82009800      -0.07098300       0.08940400
N        0.92199500      -1.18897400       0.11916400
C       -0.36156300      -1.24037000       0.41324800
C       -0.93422200       0.12408000       0.66616700
C       -0.21782600       1.28192600      -0.00940600
N        1.21376800       1.12824800       0.18528200
H        1.42656700      -2.05530900      -0.01866100
H       -2.79959800      -1.73733300      -1.89237300
H       -2.30702400      -1.91292300      -1.36236700
H       -0.89606500       0.22955500       1.75976500
H       -1.99378800       0.12244700       0.40919600
H       -0.52597300       2.23806400       0.41496500
H       -0.46127100       1.30232200      -1.07839500
H        1.82703000       1.91674900       0.06905600
