14
Extracted from Q-Chem output
O      -0.595334      0.420843     -0.559514
C      -1.273030      1.254446      0.279901
N      -1.685883      0.761669      1.435303
C      -1.466053     -0.409768      2.021804
C       2.256573     -1.482383     -1.473109
C       1.487940     -0.608570     -0.894708
C       0.753840      0.290649     -0.304898
H      -1.687531      2.172230     -0.102433
H      -2.248763      1.414592      1.963869
H      -0.878066     -1.150651      1.508901
H      -1.882111     -0.565138      3.001179
H       2.424274     -2.462402     -1.037951
H       2.751129     -1.264721     -2.414358
H       1.164975      0.997568      0.409231
