15
Extracted from Q-Chem output
C      -2.083013      0.384342      0.288649
C      -0.228379     -0.592240     -1.142636
N      -0.755762      0.546247     -0.323898
C       0.454370      0.387069      0.574297
C       0.994419     -0.604355     -0.431788
N       2.141400     -1.161004     -0.516204
O       2.898623     -0.781099      0.638465
H      -2.287094      1.207074      0.977016
H      -2.091993     -0.570795      0.808614
H      -2.831896      0.363761     -0.501734
H      -0.463625     -0.644298     -2.195367
H      -0.717972      1.458520     -0.780126
H       0.170554     -0.004255      1.549471
H       1.007976      1.318966      0.679934
H       3.730069     -1.230209      0.486541
