14
Extracted from Q-Chem output
C      -1.861245     -0.093109      0.418465
C      -0.416020     -0.367785      0.397241
C       0.686988      0.975851     -0.898303
C       0.658027     -0.518152     -0.597804
C       1.526359     -0.423368      0.668637
O       0.332219     -0.465203      1.462121
H      -2.431808     -1.023640      0.345338
H      -2.144574      0.422147      1.336084
H      -2.124935      0.524817     -0.441626
H       1.599900      1.292283     -1.401058
H      -0.195632      1.399275     -1.381281
H       0.721448     -1.325226     -1.324383
H       1.369405      0.952410      0.322713
H       2.302727     -1.104198      1.008397
