10
smiles: [C:1]([C:2](=[C:3]=[O:4])[H:8])([H:5])([H:6])[H:7].[H:9][H:10]
C       -1.60021300       0.40032600       0.34113300
C       -0.14299200       0.02434600       0.40589800
C        0.82073600       0.81768700       0.01598300
O        1.67401200       1.52191900      -0.33033800
H       -2.05304600       0.38964800       1.33444800
H       -2.15721200      -0.29484900      -0.28994600
H       -1.73099100       1.40021500      -0.07235100
H        0.17118100      -0.93841300       0.78822000
H        2.10992800      -1.75302200      -1.19317100
H        2.83078500      -1.62319500      -1.05832700
