10
Extracted from Q-Chem output
C      -1.301158      0.323332      0.282964
C      -0.005357     -0.395526      0.137815
C       1.167707      0.234663     -0.223031
O       1.564979      1.318951     -0.584074
H      -1.492630      0.574718      1.330441
H      -2.129832     -0.298317     -0.059306
H      -1.289155      1.252779     -0.285950
H       0.089004     -1.422625      0.470199
H       1.298995     -0.900521     -0.901334
H       2.032209     -0.706884     -0.206784
