15
Extracted from Q-Chem output
C      -1.386211      0.527082     -1.285762
C      -0.249898     -0.051799     -0.458505
C      -0.757345     -0.904993      0.709492
C       0.660023      1.041660      0.069279
O       0.408709      2.217544      0.003221
C       1.903132      0.582050      0.693302
C       2.920959      0.197428      1.194555
H      -2.022634      1.167783     -0.673935
H      -1.999019     -0.278059     -1.694392
H      -1.011001      1.130488     -2.112368
H       0.382956     -0.688739     -1.088245
H      -1.380573     -0.306392      1.377638
H      -1.362960     -1.729994      0.332312
H       0.064222     -1.325540      1.290609
H       3.829639     -0.131316      1.642799
