12
Extracted from Q-Chem output
C      -1.698412     -0.322337     -0.672608
N      -0.900733      0.896168     -0.628025
C       0.363148      1.042411     -0.267166
N       0.956647     -0.123725      0.101971
C       2.279313     -0.139552      0.512362
O       2.849187     -1.140307      0.849844
H      -1.755182     -0.795316      0.310900
H      -2.710705     -0.073123     -0.983064
H      -1.291813     -1.039820     -1.389911
H      -1.364610      1.741881     -0.906150
H       0.510236     -1.036441      0.110441
H       2.726413      0.864818      0.488332
