13
Extracted from Q-Chem output
C       0.646400     -1.046770      0.134983
C       1.121157     -0.030333     -0.725600
C       0.534089      1.216865     -0.485888
C      -0.667472      1.274903      0.179138
N      -1.514006      0.112995      0.137290
C      -0.617913     -0.752112      0.798514
H       1.328525     -1.761139      0.586386
H      -0.285297     -1.771643     -0.183162
H       2.027982     -0.155440     -1.298533
H       1.075088      2.126356     -0.723873
H      -1.060405      2.159969      0.661957
H      -1.694820     -0.174403     -0.822721
H      -0.897509     -1.203287      1.745156
