13
Extracted from Q-Chem output
C       1.546970     -0.544391     -0.398007
C       0.718091      0.428114      0.398596
C      -0.396378      1.444836      0.391072
C       0.059951     -0.535245     -0.598617
C      -1.306295     -0.590915      0.052562
N      -1.534971      0.871067      0.328004
H       2.066972     -1.254126      0.234420
H       2.091523     -0.272234     -1.293765
H       0.657901     -0.012255      1.399466
H      -0.319740      2.508016      0.598037
H      -0.091250      0.010815     -1.530648
H      -1.336028     -1.136352      1.000393
H      -2.106364     -0.955989     -0.591036
