13
Extracted from Q-Chem output
C       1.372303     -0.442208     -0.307640
C       0.961560      0.540590      0.729720
C      -0.315922      1.250613      0.187788
C      -0.057430     -0.147902     -0.691893
C      -1.249741     -0.596516      0.146988
N      -1.406018      0.719875      0.775399
H       1.604058     -1.441499      0.051382
H       2.076116     -0.110214     -1.067991
H       0.734490      0.097080      1.701112
H      -0.255406      2.292094     -0.127060
H      -0.226904      0.095824     -1.738102
H      -1.076396     -1.458035      0.800634
H      -2.129615     -0.809048     -0.471047
