12
Extracted from Q-Chem output
O      -1.320022     -1.763288      0.089191
C       0.995290     -0.368703     -0.556933
C      -1.517577     -0.390557     -0.078113
C      -0.232054      0.380418     -0.188707
O       0.690090      0.232139      0.971396
C       1.835901      0.631068      0.145260
H      -0.435935     -1.962438     -0.254007
H      -2.082091     -0.171445     -0.997437
H      -2.108700     -0.012986      0.762032
H      -0.357688      1.442621     -0.416057
H       2.777291      0.292077      0.567154
H       1.798928      1.698754     -0.082412
