17
Extracted from Q-Chem output
C      -2.168225     -0.422117      0.362078
C      -0.572805      0.014794     -1.142170
O      -0.310087      1.316858     -0.953034
C       0.925042      1.532261     -0.247923
C       1.584079      0.178240     -0.128346
C       0.954601     -0.789981      0.809691
C       0.566663     -0.806457     -0.648682
H      -3.211694     -0.309171      0.063012
H      -1.882959      0.363641      1.055229
H      -1.960715     -1.420116      0.739778
H      -1.702378     -0.308432     -0.989455
H       1.519311      2.230284     -0.838322
H       0.697607      1.990312      0.718721
H       2.631386      0.085415     -0.379977
H       0.234683     -0.422148      1.529134
H       1.557195     -1.619344      1.156643
H       0.861117     -1.659484     -1.245329
