15
Extracted from Q-Chem output
C      -1.957864     -0.251239     -0.704772
C      -0.860848     -0.868084     -0.261073
C       0.547515      1.086586     -0.144187
C      -0.049114      2.054913      0.739554
N       1.156123      1.872708      0.995445
N       0.353329     -0.301248      0.068925
C       1.547552     -1.117598      0.013464
H      -2.860209     -0.824140     -0.860429
H      -1.992610      0.809180     -0.915110
H      -0.896257      2.621597      1.097859
H      -0.882844     -1.941297     -0.095252
H       0.874292      1.380794     -1.142129
H       1.968536     -1.181179     -0.998770
H       1.313921     -2.127459      0.351234
H       2.304435     -0.700503      0.678386
