13
Extracted from Q-Chem output
C      -1.112880     -1.134386     -0.393362
C      -0.000811     -0.502983      0.346564
O      -0.015312     -0.464361      1.641244
C       0.029965      1.507334     -0.320085
O      -0.459723      1.875500     -1.326224
C       1.175448      0.140830     -0.167495
O       2.019471      0.502536      0.727549
H      -2.075142     -0.868412      0.044443
H      -0.998306     -2.218932     -0.328502
H      -1.087843     -0.842601     -1.442366
H       0.921970     -0.075257      1.809458
H       0.157301      2.074597      0.626706
H       1.440795     -0.008104     -1.219352
