11
Extracted from Q-Chem output
O      -1.462469      0.075830     -1.419063
C      -0.649783     -0.029090     -0.539431
C      -0.055578      1.237536      0.076831
C       1.343904      1.378698      0.419063
C      -0.165380     -1.369937     -0.048428
H      -0.534492      2.123303     -0.343275
H      -0.303297      1.239016      1.174250
H       1.739834      0.361696      0.611392
H       0.778831     -1.616598     -0.540093
H       0.012900     -1.376326      1.028013
H      -0.898121     -2.128824     -0.312989
