14
smiles: [C:3]([C:4]1=[C:5]([H:11])[C:6]([H:12])([H:13])[N:7]1[H:14])([H:8])([H:9])[H:10].[O+:1]#[C-:2]
O        0.54191900       2.50465700      -1.94406200
C        1.38212600       1.97787100      -1.41623700
C        1.44732800      -1.03851400       0.73958300
C        0.13342600      -0.52270900       0.28882100
C       -0.79372200      -0.82997600      -0.62596400
C       -1.63144000       0.33161500      -0.15409700
N       -0.50046400       0.66234600       0.76510900
H        1.42328000      -1.29587600       1.80193200
H        2.22080400      -0.28041900       0.60002700
H        1.72148000      -1.93001200       0.17638700
H       -0.86246000      -1.53019800      -1.44312400
H       -2.55133000       0.06864400       0.37324700
H       -1.83289300       1.12841300      -0.87286600
H       -0.73183100       0.67954900       1.75204800
