13
smiles: [H:6][H:9].[O:1]=[C:2]([C:3]1([H:8])[C:4]([H:10])([H:11])[C:5]1([H:12])[H:13])[H:7]
O        1.85760500       0.17273800      -0.32438400
C        1.39605300       0.35905200       0.77239700
C       -0.04508400       0.27430200       1.09292600
C       -1.02590000       0.69918000       0.02118300
C       -0.86907900      -0.73935700       0.32813400
H        0.88837300      -0.60787000      -2.58025300
H        2.06203700       0.61147000       1.62173900
H       -0.30943400       0.46716200       2.12452500
H        0.55343500      -0.88787500      -3.18340200
H       -1.91892300       1.21022500       0.35393400
H       -0.58563100       1.06704500      -0.89623500
H       -1.65226700      -1.24503600       0.87631600
H       -0.32077900      -1.34662100      -0.37984400
