13
smiles: [C:1](=[C:2]([H:10])[H:11])([H:7])[H:8].[O:3]([C:4]([C:5]#[N:6])([H:12])[H:13])[H:9]
C       -1.79258000      -0.52999000      -0.81882100
C       -0.94041900      -1.53538000      -0.71618500
O        0.30560100       0.79723100       1.37989700
C        1.51374300       0.84308100       0.67054600
C        1.34481600       1.30723300      -0.71803300
N        1.19501100       1.64049900      -1.80490200
H       -1.59500600       0.31909400      -1.46318000
H       -2.72382500      -0.51470400      -0.26410100
H       -0.29682200       0.19095500       0.94321300
H       -0.00922700      -1.55065300      -1.27100800
H       -1.13791500      -2.38455900      -0.07192900
H        2.02264800      -0.12675500       0.64199900
H        2.16418200       1.54467100       1.19310700
