15
Extracted from Q-Chem output
C      -1.876860      0.454128     -0.375601
C      -0.545851      0.553083      0.319547
O      -0.462388     -0.504280      1.358247
C       0.710201     -1.024907      1.525035
C       1.621111     -0.340409      0.531179
C       0.714330      0.322060     -0.507433
O       0.512769     -0.481355     -1.649241
H      -1.988420     -0.507401     -0.874756
H      -2.687220      0.575086      0.342856
H      -1.960777      1.236839     -1.130574
H      -0.460699      1.495285      0.867416
H       1.108048      1.267033     -0.880311
H       2.177630      0.398539      1.121913
H       2.361707     -1.017440      0.104930
H       0.346843     -1.387735     -1.379136
