11
Extracted from Q-Chem output
O       0.682400      0.913009     -1.040865
C       1.066912      0.072581     -0.105725
C       0.370332      0.129927      1.203999
N      -0.214623     -0.712650      0.150770
C      -0.979779      0.189808     -0.931471
O      -1.878132      0.884015     -0.566984
H       1.998248     -0.487813     -0.189398
H       0.771440     -0.437107      2.034428
H      -0.224982      1.002974      1.444546
H      -0.374501     -1.701056      0.287901
H      -0.904449     -0.352419     -1.879336
