12
Extracted from Q-Chem output
C      -2.077372      0.730635     -0.009050
C      -0.578042      0.836063     -0.014788
O      -0.000381      1.900540     -0.032668
N       0.051558     -0.422561      0.002482
C       1.334347     -0.381408      0.005763
N       2.076531     -1.493082      0.020157
H      -2.528763      1.719401     -0.031642
H      -2.402481      0.144140     -0.870105
H      -2.398192      0.188117      0.882108
H       1.618161     -2.387600      0.026909
H       1.885123      0.562082     -0.002349
H       3.076888     -1.451421      0.021999
