12
Extracted from Q-Chem output
C      -1.998938      0.536142     -0.046279
C      -0.527664      0.851260      0.002590
O      -0.089328      1.981606      0.038940
N       0.281248     -0.265146      0.001608
C       1.615830     -0.239604      0.040475
N       1.975687     -1.484396      0.028783
H      -2.571632      1.459712     -0.034826
H      -2.226587     -0.032149     -0.949824
H      -2.274810     -0.085433      0.807238
H       0.650672     -1.575916     -0.011071
H       2.233157      0.652138      0.073463
H       2.932367     -1.798215      0.048905
