18
smiles: [C:1]([N:2]([C:3]([O-:4])=[C+:5][C:7]([H:16])([H:17])[H:18])[H:11])([H:8])([H:9])[H:10].[C:6]([H:12])([H:13])([H:14])[H:15]
C        2.67669600      -0.08767800       0.07627300
N        1.22992200      -0.04483100       0.04483900
C        0.54448100       1.09843600       0.21979900
O        1.02135700       2.19836200       0.50895900
C       -0.85886300       1.28831600       0.01060400
C       -1.45596200      -2.02819400      -1.31683200
C       -1.67157500       1.27553600       1.22953200
H        3.09792500      -0.17434200      -0.92789100
H        3.01958600      -0.92571400       0.68366200
H        3.03240600       0.83949500       0.52043000
H        0.72695000      -0.82956700      -0.33026800
H       -1.52014800      -0.95359000      -1.48126700
H       -1.35513800      -2.22669000      -0.25085200
H       -0.58899200      -2.42519200      -1.84265400
H       -2.35920100      -2.50662500      -1.69230500
H       -1.98396300       0.21434200       1.26105300
H       -1.13982400       1.48678800       2.16295500
H       -2.59021700       1.85600800       1.15214600
