14
Extracted from Q-Chem output
C       1.526638     -0.466360      0.937142
C       0.459462      0.406434      0.310586
O       1.110216      1.408947     -0.440416
C      -0.462187     -0.411473     -0.574271
C      -2.727378      0.340923     -0.953531
O      -1.460278      0.473236     -1.143360
H       2.131711     -0.942865      0.163542
H       2.183681      0.146263      1.553419
H       1.082587     -1.239842      1.565887
H      -0.149817      0.865113      1.102898
H       0.444138      1.957390     -0.862764
H       0.091819     -0.832810     -1.414649
H      -0.978321     -1.199297     -0.017897
H      -2.867024     -0.573972     -0.312050
