15
Extracted from Q-Chem output
C      -1.500846     -0.391667     -0.723922
O      -0.576696     -1.491293     -0.722158
C       0.091394     -0.982047      0.446144
C       1.532157     -0.582989      0.155229
C       1.590966      0.806315     -0.367659
C       0.260996      1.387861     -0.054446
C      -0.737362      0.315592      0.400144
H      -1.529823      0.118438     -1.691403
H      -2.510204     -0.718058     -0.456574
H      -0.037807     -1.651902      1.300554
H       2.137516     -0.517437      1.075696
H       2.070153     -1.293421     -0.477278
H       0.514711      2.093597      0.754422
H      -0.088540      2.041337     -0.859510
H      -1.321451      0.589035      1.276623
