14
Extracted from Q-Chem output
O      -1.395402     -0.242681     -1.118865
C      -0.967429     -0.183477      0.231690
C       0.284920     -0.987864      0.489145
N       1.013974      0.228233      1.052476
C      -0.182991      1.051487      0.720026
C       1.435741     -0.393490     -0.201003
O       1.364178      0.248396     -1.417003
H      -2.183148      0.293741     -1.226467
H      -1.784647     -0.450762      0.904930
H       0.310313     -1.960338      0.965043
H       0.465471      0.165347     -1.758726
H      -0.591076      1.499539      1.623829
H       0.008170      1.825368     -0.025235
H       2.384645     -0.901821     -0.075965
