11
smiles: [C-:6]#[O+:7].[C:1](/[N:2]=[N:3]/[C:4](=[O:5])[H:11])([H:8])([H:9])[H:10]
C       -1.64658700      -0.60114600      -0.30201200
N       -0.27634900      -0.18038800      -0.53957700
N        0.55815700      -0.99940500      -0.17040400
C        1.91771100      -0.60043100      -0.36240500
O        2.50509000       0.10328800       0.39734400
C       -0.10328000       2.29284500       1.58130900
O        0.64609600       3.10941200       1.39768700
H       -2.16171800      -0.61162800      -1.26401000
H       -1.69873900      -1.57830400       0.18158000
H       -2.12076900       0.16551900       0.31283600
H        2.38038700      -1.09976300      -1.23235000
