11
Extracted from Q-Chem output
C      -1.537767     -0.358213     -0.098584
N      -0.164225      0.094372     -0.320266
N       0.656305     -0.863573     -0.496910
C       1.958489     -0.452007     -0.352996
O       2.254482      0.638434      0.109872
C       0.303471      1.253029      0.956509
O       0.122175      2.377157      0.985300
H      -1.927781     -0.638624     -1.077058
H      -1.576947     -1.223142      0.562846
H      -2.125131      0.467720      0.297048
H       2.698978     -1.235219     -0.543014
