12
Extracted from Q-Chem output
C       1.658162     -0.245877      0.236186
C       0.234307      0.103093     -0.034644
N      -0.777764     -0.937724     -0.020740
N      -0.428618     -1.949678      0.582615
C      -1.479702      1.607456     -0.549805
O      -2.253712      1.959921      0.292470
N      -0.148226      1.270272     -0.303014
H       2.007951     -0.991768     -0.479523
H       1.753515     -0.687199      1.228378
H       2.264676      0.652566      0.164266
H      -1.211555     -2.613492      0.533101
H      -1.716113      1.623307     -1.629081
