13
Extracted from Q-Chem output
N      -1.188428      0.969075      0.740047
C      -1.549285     -0.273522      0.700346
O      -1.055430     -1.130654     -0.098799
C       0.248696     -0.821656     -0.982418
C       0.978293      0.391868     -0.648248
C       2.057491      0.278336      0.265276
N       2.888419      0.192162      1.063357
H      -1.557422      1.554391      1.470948
H      -2.321030     -0.659995      1.370424
H      -0.202603     -0.811691     -1.970754
H       0.748744     -1.767910     -0.792112
H       1.124344      1.093829     -1.461024
H      -0.206679      1.078231      0.177313
