14
Extracted from Q-Chem output
C      -0.973851     -1.240339      0.205002
C      -0.295188      0.056903     -0.027900
N      -0.691693      1.215304      0.263973
O      -1.971187      1.249821      0.784255
C       1.088851     -0.001017     -0.914317
C       1.939517      0.495833      0.169502
O       1.442220     -1.231296     -1.119234
H      -1.643127     -1.166903      1.060503
H      -1.556855     -1.512189     -0.678134
H      -0.219926     -2.012184      0.344432
H      -2.111528      2.183628      0.957267
H       0.897918      0.690555     -1.755366
H       2.859326     -0.057756      0.330328
H       1.581392      1.151494      0.954473
