12
smiles: [C:3]([O:4][H:7])([C:5]#[C:6][H:12])([H:10])[H:11].[O:1]=[C:2]([H:8])[H:9]
O       -2.03120800      -0.29834200      -0.80554500
C       -1.42745100      -1.21419500      -1.28160400
C        0.47085700       1.03386700       1.32848400
O       -0.63554800       0.20237800       1.60212500
C        1.30533400       0.54402600       0.22717000
C        1.95804600       0.14403300      -0.69335700
H       -1.10528600       0.04129100       0.78136700
H       -0.53105400      -1.64180200      -0.79296500
H       -1.73296600      -1.68331200      -2.23660700
H        0.15547400       2.05957100       1.10109300
H        1.06157000       1.07007800       2.24498500
H        2.54661000      -0.21437200      -1.50477300
