11
Extracted from Q-Chem output
C      -1.390363     -0.888258      0.572957
C      -0.873959      0.497708      0.183824
C       0.574537      0.527744      0.009408
C       1.764173      0.526524     -0.127428
C       4.236020      0.534471     -0.412588
N       3.072842      0.530916     -0.278871
H      -0.949126     -1.218342      1.513664
H      -1.143244     -1.624104     -0.192565
H      -2.474174     -0.866801      0.691139
H      -1.145543      1.231586      0.947080
H      -1.341556      0.829967     -0.746700
