11
Extracted from Q-Chem output
C      -1.336634     -0.892862      0.528320
C      -0.810731      0.490800      0.146432
C       0.628989      0.513344     -0.079584
C       1.815528      0.514043     -0.281041
C       3.255991      0.515044     -0.695963
N       3.362726      0.556863      0.494828
H      -0.869249     -1.246787      1.447443
H      -1.127414     -1.618396     -0.258011
H      -2.415416     -0.855649      0.684047
H      -1.046727      1.218729      0.927615
H      -1.303239      0.848722     -0.762257
