9
Extracted from Q-Chem output
N      -0.765883      0.684154      1.571963
C      -0.366386      0.222756      0.382619
N       0.762233     -0.360453      0.216146
C       1.010075     -0.774174     -1.087307
O       2.006297     -1.336978     -1.439988
H      -1.652445      1.134781      1.687716
H      -1.081320      0.384593     -0.433739
H      -0.161431      0.568383      2.366826
H       0.197885     -0.543422     -1.817535
