9
Extracted from Q-Chem output
N      -0.948430      0.850289      1.379208
C      -0.764149      0.026236      0.399519
N       0.547233      0.098103      0.133701
C       1.187430     -0.605670     -0.849025
O       0.659497     -1.388821     -1.604077
H      -1.840432      1.021977      1.814525
H      -1.486802     -0.597624     -0.115999
H       0.358193      0.966549      1.164276
H       2.265793     -0.384677     -0.889574
