15
Extracted from Q-Chem output
C      -1.174951      0.664965      0.265669
O      -0.672697      1.706958     -0.598853
C       0.602219      1.986855     -0.788543
C      -0.063647     -1.271569     -0.924813
C      -0.185650     -0.476402      0.370993
C       1.117741      0.174043      0.784407
O       1.463531      1.256832     -0.107024
H      -2.121520      0.358515     -0.178055
H      -1.373862      1.110811      1.242811
H       0.264380     -0.639423     -1.751986
H       0.659470     -2.081173     -0.814116
H      -1.023224     -1.711493     -1.201281
H      -0.509625     -1.143105      1.175331
H       1.055201      0.584276      1.794736
H       1.962772     -0.511946      0.737290
