15
Extracted from Q-Chem output
C      -1.214313      0.644977      0.385967
O      -0.726633      1.396403     -0.747245
C       0.478049      0.971276     -1.190553
C      -0.019707     -1.028484     -0.888112
C      -0.223564     -0.499164      0.513754
C       1.091701      0.149950      0.908002
O       1.453895      0.926622     -0.255094
H      -2.228487      0.318908      0.145115
H      -1.241642      1.275702      1.277633
H       0.413944     -0.022653     -1.853561
H       0.803397     -1.733147     -0.996476
H      -0.928446     -1.363996     -1.385698
H      -0.547471     -1.257437      1.229321
H       0.993844      0.797817      1.782190
H       1.895570     -0.568629      1.081326
