10
Extracted from Q-Chem output
N       2.159703     -1.341183      0.484703
C       1.074189     -1.084883      0.215700
C      -0.297675     -0.690219     -0.092110
C      -0.655167      0.630858      0.598802
O       0.137787      1.699995      0.153630
H       1.035124      1.584339      0.476536
H      -0.975138     -1.484160      0.229632
H      -0.393425     -0.578536     -1.173716
H      -0.592327      0.505991      1.685756
H      -1.686076      0.883455      0.348716
