10
Extracted from Q-Chem output
N       2.047923     -0.470341      0.120854
C       0.865341     -0.097366      0.251548
C      -0.486532     -0.732610      0.045244
C      -1.009412      0.631621      0.505666
O       0.353746      1.110151      0.659770
H       2.702998      0.268451      0.365477
H      -0.691559     -1.572904      0.704849
H      -0.700184     -1.006718     -0.985542
H      -1.536756      0.649885      1.458978
H      -1.545565      1.219831     -0.238558
