16
Extracted from Q-Chem output
C       1.625606      0.822311     -0.346730
C       1.084260     -0.305994      0.454510
C      -0.433582     -0.244049      0.887395
C      -1.016696     -1.053090     -0.443498
C      -0.120332     -0.559954     -1.444642
C      -1.076759      1.013260      0.993128
N       1.139835     -0.419551     -0.965659
H       2.691978      0.984951     -0.435100
H       0.975412      1.691606     -0.423180
H       1.733518     -0.928799      1.057442
H      -0.529338     -0.831364      1.805227
H      -0.871426     -2.093215     -0.139117
H      -2.073889     -0.881978     -0.650494
H      -0.379585     -0.163436     -2.416667
H      -1.388488      1.408887      1.950157
H      -1.366894      1.567213      0.109277
