17
Extracted from Q-Chem output
C       2.529650      0.570541      0.208037
C       1.257712     -0.260478      0.309699
C       0.003074      0.599743      0.402715
N      -1.513643     -0.965307     -0.725928
C      -1.291654     -0.201948      0.485901
C      -2.589725     -0.783694     -1.348362
H       2.519974      1.194555     -0.689248
H       3.417939     -0.061938      0.160558
H       2.640852      1.234213      1.069631
H       1.172811     -0.924273     -0.553645
H       1.310668     -0.909043      1.190902
H      -0.051486      1.268558     -0.463281
H       0.063113      1.242288      1.287627
H      -1.215977     -0.917483      1.311341
H      -2.136791      0.468910      0.702225
H      -3.365846     -0.082295     -1.012888
H      -2.779015     -1.339169     -2.265440
