14
Extracted from Q-Chem output
O       1.716449     -0.795225     -0.970222
C       1.222308      0.639467     -0.039487
C       0.291368     -0.038266      0.800857
C      -1.196584      0.189600      0.707684
C      -1.831689      0.138858     -0.652469
O      -1.254248      0.022944     -1.698849
H       2.587198     -1.102316     -0.685618
H       0.872707      1.242768     -0.867711
H       2.187020      0.942622      0.356031
H       0.640658     -0.233678      1.811095
H       0.897560     -1.030972     -0.142272
H      -1.728094     -0.557285      1.309523
H      -1.523370      1.151624      1.135547
H      -2.939584      0.236513     -0.636757
