16
Extracted from Q-Chem output
C       2.252664     -0.015740     -0.431402
C       1.087689      0.522046      0.393523
C      -0.243316      0.318992     -0.297861
C      -0.572198     -1.155674     -0.536230
C      -2.400819      0.013661      0.034150
O      -1.325264      0.781901      0.502551
H       2.163224     -1.091592     -0.598243
H       2.295954      0.464318     -1.411256
H       3.202195      0.165420      0.073190
H       1.046796      0.032006      1.370577
H       1.213326      1.592210      0.579188
H      -0.251440      0.870404     -1.249802
H      -0.596560     -1.584817      0.485273
H      -2.040791     -0.932097     -0.552296
H      -3.042258     -0.327260      0.846258
H      -2.983362      0.528113     -0.740039
