17
smiles: [C:1](=[C:2]1[C@@:3]2([H:11])[C:4]([H:12])([H:13])[C@@:5]2([H:15])[C@:6]1([O:7][H:17])[H:16])([H:8])[H:9].[H:10][H:14]
C        2.07216200       0.37493100       0.68565000
C        0.83620800       0.13929100       0.28699800
C       -0.05649800      -1.05417500       0.23527400
C       -1.28956600      -0.75280900       1.03944600
C       -1.18340400      -0.18691600      -0.33515100
C       -0.23687600       1.01284500      -0.36691300
O       -0.61549500       2.23258900       0.20655300
H        2.70177600      -0.41271000       1.08262800
H        2.49313100       1.37150900       0.62055500
H        0.53065200      -1.13983300      -2.62965900
H        0.22338500      -2.06263700      -0.03385800
H       -1.21735900      -0.12453100       1.92162000
H       -1.98724200      -1.57426700       1.14448800
H        0.67487800      -1.26347600      -3.34966000
H       -1.89503600      -0.43862700      -1.10894200
H        0.04972800       1.24146500      -1.39527200
H       -0.80315500       2.08929900       1.13687000
