16
Extracted from Q-Chem output
C      -1.911976     -0.095472      0.160166
C      -0.611996      0.663150      0.041501
C       0.505092      0.287592      0.964273
C       1.003911     -1.096158      0.580034
C       1.444167      0.102657     -0.116908
O       0.859656      0.247707     -2.055951
H      -2.358191     -0.019286      1.160998
H      -1.779712     -1.163617     -0.041399
H      -2.644135      0.268459     -0.563527
H       0.018896      0.463091     -1.361180
H      -0.709216      1.748056     -0.000349
H       0.717606      0.718689      1.940243
H       1.775292     -1.559682      1.188795
H       0.314585     -1.795999      0.123421
H       2.421234      0.459079     -0.391392
H       1.141527      1.071243     -2.474177
