13
Extracted from Q-Chem output
C      -0.515049     -0.767406     -0.634505
C      -0.393079      0.686264     -0.173720
O      -1.265899      0.979935      0.903397
C       1.041691      0.744265      0.369235
C       1.481157     -0.666890      0.682842
N       0.579105     -1.413651      0.105741
H      -0.356507     -0.876601     -1.711126
H       0.640814     -2.419407      0.135033
H      -1.481120     -1.205015     -0.374939
H      -0.563240      1.383657     -0.999863
H      -2.167499      1.002992      0.578224
H       1.105582      1.393454      1.242638
H       1.745326      1.139158     -0.371090
