11
smiles: [C:2]([C@@:3]1([H:9])[C:4]([H:10])([H:11])[O:5]1)[H:8].[O:1]([H:6])[H:7]
O       -1.55991300      -0.09836100      -0.48413100
C       -0.70663800       0.67415100       0.34535200
C        0.65266600       0.58588300       0.01491600
C        0.91531300      -0.88977300       0.33020600
O        1.04349700      -0.39316400      -0.95063500
H       -0.86432100      -0.45322800      -1.03907000
H       -2.12641000       0.40088700      -1.07369600
H       -0.76677400       1.35820700       1.21168200
H        1.45789700       1.27325400       0.27001700
H        0.10104200      -1.58594600       0.49676100
H        1.82577100      -1.04604100       0.90392100
