14
smiles: [C:1]([C:2](=[O:3])[H:11])([H:8])([H:9])[H:10].[C:4]1([H:12])([H:13])[C:5](=[O:7])[N:6]1[H:14]
C       -1.87893400       0.85359200      -0.18027800
C       -1.86830000      -0.64230200      -0.08706500
O       -1.17218900      -1.36139100      -0.74886900
C        1.99863800      -0.88816200      -0.15906800
C        1.34882400       0.06579400       0.74331700
N        1.89682000       0.59906100      -0.37429900
O        0.81084700       0.33262500       1.76975500
H       -1.63449600       1.28020100       0.79606500
H       -2.88661900       1.19394500      -0.43276100
H       -1.16794000       1.19780900      -0.92877400
H       -2.56872900      -1.07590200       0.65818200
H        1.45710800      -1.48023400      -0.88686800
H        2.94705500      -1.30145400       0.17284000
H        2.70201100       1.20898600      -0.35154300
