14
Extracted from Q-Chem output
C      -2.417300      0.504341     -0.146079
C      -1.174032     -0.265785      0.092896
O      -0.538967     -0.791823     -0.809525
C       1.336914     -0.909051     -0.359544
C       1.627591      0.440405      0.172712
N       2.906542      0.228158      0.023387
O       0.861968      1.239871      0.703202
H      -2.229653      1.528690      0.187159
H      -3.226039      0.107102      0.471197
H      -2.693816      0.496787     -1.197893
H      -0.843014     -0.370271      1.132490
H       1.644260     -1.173543     -1.357807
H       1.219674     -1.711076      0.360120
H       3.509963      0.658763      0.718322
