19
Extracted from Q-Chem output
C       1.873781     -0.454431      0.580681
C       1.248240      0.580038     -0.348367
O       0.778201     -0.217415     -1.602726
C       0.067850      1.309296      0.066137
C      -1.114765     -0.184205     -1.152514
C      -1.231054      0.500597      0.135299
C      -1.515095     -0.370509      1.349971
H       2.215103      0.041701      1.487831
H       2.738419     -0.940860      0.119544
H       1.160514     -1.226510      0.870332
H       2.017963      1.266866     -0.704992
H       1.219215     -1.079689     -1.685375
H      -0.049422      2.270632     -0.426602
H      -1.136343     -1.267461     -1.241360
H      -1.412527      0.354984     -2.039857
H      -2.023316      1.246887      0.038142
H      -0.789028     -1.176636      1.460354
H      -2.507120     -0.827254      1.282680
H      -1.471529      0.237274      2.254148
