16
Extracted from Q-Chem output
C       1.273631     -0.661603      1.006504
C       1.030159      0.109144     -0.263524
C      -0.253083      0.013483     -1.040433
C      -1.401834     -0.859747     -0.611778
C       0.085604      1.286107     -0.302520
C      -1.239203      1.874453      1.811043
N      -0.637019      1.613534      0.849668
H       0.393372     -0.692755      1.647281
H       1.561663     -1.689650      0.778983
H       2.080691     -0.203517      1.580452
H       1.919208      0.255585     -0.867028
H      -0.144160      0.102662     -2.115854
H      -2.333304     -0.511762     -1.061355
H      -1.236192     -1.890505     -0.930341
H      -1.541646     -0.860186      0.468433
H       0.366760      2.160042     -0.874247
