16
Extracted from Q-Chem output
C       1.269292     -0.705266      0.983605
C       0.979538      0.144903     -0.223883
C      -0.290081      0.045897     -1.007350
C      -1.422082     -0.862703     -0.621174
C       0.006928      1.304877     -0.222964
C      -1.194599      1.698671      0.869811
N      -0.246146      1.710768      1.578468
H       0.375142     -0.928420      1.561765
H       1.717631     -1.650354      0.670292
H       1.967746     -0.193664      1.646611
H       1.863165      0.368005     -0.813250
H      -0.196476      0.202975     -2.077742
H      -2.360834     -0.487822     -1.031472
H      -1.253574     -1.869146     -1.008952
H      -1.545155     -0.931738      0.459239
H       0.284324      2.205786     -0.745710
