13
Extracted from Q-Chem output
O       1.356576      1.964957      0.598763
C       1.769572      0.963135      0.081934
C       0.994241     -0.317356     -0.049974
C      -0.416000     -0.239703      0.459208
C      -1.533631      0.132637     -0.426400
N      -1.326655     -1.262931     -0.042780
H       2.797442      0.932160     -0.337822
H       1.560116     -1.097259      0.474772
H       1.003077     -0.618670     -1.103108
H      -0.511405      0.054621      1.499344
H      -1.339741      0.352133     -1.470435
H      -2.365540      0.676246      0.005810
H      -1.988052     -1.539969      0.670782
