13
Extracted from Q-Chem output
O       1.494641      1.669331      1.187816
C       1.071089      1.073932      0.229373
C       1.266461     -0.759851     -0.087668
C       0.101189     -0.178951      0.420986
C      -1.285376      0.055552     -0.473942
N      -1.852216     -1.088638     -0.042441
H       1.031224      1.481685     -0.790680
H       1.887238     -1.409136      0.516067
H       1.501359     -0.691444     -1.142082
H      -0.108582     -0.311111      1.474575
H      -0.935613      0.044890     -1.508500
H      -1.695657      1.030818     -0.194215
H      -2.440982     -0.893582      0.765717
