7
Extracted from Q-Chem output
O       0.277962     -1.348186     -0.151867
C       0.974713     -0.337383     -0.141190
N       0.603567      0.940927     -0.095135
N      -0.929621      1.148644     -0.626681
C      -1.236546      0.300074      0.131639
H       2.076469     -0.372361     -0.131949
H      -1.758803     -0.328246      0.825338
