13
Extracted from Q-Chem output
C      -1.420812     -0.526570      1.142675
N       0.166393      0.567485     -1.279563
C       1.177451      1.371812     -0.548645
C       0.514474      0.261086      0.110853
O      -0.281899      0.312410      1.202651
C       0.763775     -0.747278     -0.915143
H      -1.134441     -1.583025      1.165776
H      -2.019367     -0.300125      2.022056
H      -2.005457     -0.324701      0.240504
H       2.221568      1.284052     -0.846273
H       0.834385      2.373313     -0.316042
H       0.066226     -1.569650     -1.027812
H       1.783709     -0.959402     -1.235148
