14
Extracted from Q-Chem output
C       2.221879      0.127222      0.633498
C       0.749108      0.219387      0.986079
N      -0.075892     -0.402572     -0.036413
C      -2.569748     -0.153375     -0.956063
C      -1.326684      0.003814     -0.259236
N      -2.142139      0.908826      0.051868
H       2.427139      0.627208     -0.314101
H       2.543960     -0.913881      0.548033
H       2.827407      0.595732      1.410149
H       0.560929     -0.238834      1.963381
H       0.434140      1.261598      1.056570
H       0.192584     -1.300617     -0.396710
H      -3.301183     -0.886831     -0.623543
H      -2.664188      0.157553     -1.994463
