11
Extracted from Q-Chem output
C       1.967859     -0.169830     -0.240647
C       0.639571     -0.087102     -0.157448
N      -0.154573      0.858366      0.477652
C      -1.484163      0.443293      0.385558
C      -1.500043     -0.647616     -0.368562
O      -0.215210     -0.984139     -0.737604
H       0.201288      1.407030      1.236932
H       2.590310      0.586417      0.211792
H       2.423599     -0.990875     -0.769945
H      -2.295986      0.991020      0.830970
H      -2.292965     -1.268264     -0.744253
