12
Extracted from Q-Chem output
O      -2.112162      0.475683     -0.488517
C      -1.235455     -0.278895      0.329125
C       0.199670     -0.066368     -0.001023
O       0.609968     -0.470557     -1.268679
C       1.083344      0.567071      0.761202
O       2.374516      0.770375      0.423043
H      -1.773468      0.451609     -1.386533
H      -1.480497     -1.350107      0.248319
H      -1.422526      0.018780      1.361480
H       0.407417     -1.402548     -1.386685
H       2.505524      0.400037     -0.457652
H       0.815209      0.984041      1.721971
