12
Extracted from Q-Chem output
O      -1.796053      0.799273     -0.313835
C      -1.215967     -0.361722      0.255000
C       0.265057     -0.387160      0.224311
O       0.812571     -0.543495     -1.267163
C       1.110440      0.603007      0.791585
O       2.102499      1.021942      0.193567
H      -1.561430      0.826146     -1.243997
H      -1.626554     -1.265993     -0.206026
H      -1.514088     -0.374325      1.306345
H       0.958231     -1.309439     -0.464335
H       1.582799      0.090829     -1.167777
H       0.860074      0.954682      1.803332
