14
Extracted from Q-Chem output
O       2.130314     -0.480380      0.092878
C       2.058426      0.749645      0.476976
C       0.509279     -0.166785      0.543196
C      -0.250113     -1.140089     -0.379513
C      -1.464621     -0.196626     -0.261596
C      -0.484353      0.935563      0.102539
H       2.292248      1.435005     -0.389108
H       0.472664     -0.413740      1.595018
H       0.158183     -1.127472     -1.388836
H      -0.332089     -2.168459     -0.032074
H      -2.073780     -0.058489     -1.153154
H      -2.112589     -0.459201      0.574850
H      -0.141580      1.454089     -0.793347
H      -0.735767      1.665100      0.870162
