11
smiles: [C:4](=[C:5]([O:6][H:7])[H:11])([H:9])[H:10].[N:1](=[C:2]=[O:3])[H:8]
N       -1.77771000       0.04201600      -0.21850200
C       -2.65155200       0.87133700      -0.30067500
O       -3.40434600       1.74080100      -0.45104400
C        1.71000100      -0.11814400       0.72802900
C        1.84798700      -0.44858100      -0.54778300
O        0.91304100      -0.33722400      -1.51953800
H        0.10537400       0.02559500      -1.14579700
H       -1.84965200      -0.83701800       0.25925900
H        0.78622900       0.29106100       1.12236900
H        2.53408100      -0.25582100       1.41219100
H        2.76889100      -0.85762400      -0.94691900
