11
Extracted from Q-Chem output
N      -1.404926     -0.456531     -0.431795
C      -1.056176      0.635014      0.123001
O      -1.347527      1.700900      0.538752
C       0.839315      0.267590      0.601639
C       1.335783     -0.204659     -0.593798
O       0.830740     -1.209778     -1.224146
H      -0.179072     -1.215960     -0.915960
H      -2.365974     -0.455587     -0.748320
H       0.443952     -0.444675      1.316826
H       1.282297      1.161905      1.016297
H       2.134857      0.317036     -1.121709
