15
Extracted from Q-Chem output
O      -1.464795      1.275886      0.116560
C      -1.162936      0.054639      0.498109
C      -0.650235     -1.063143     -0.821013
C       0.552491     -0.447446     -0.401603
C       1.377741      0.470239     -1.220693
O       0.636420      1.616237     -1.040379
C       0.262317     -0.222743      1.047214
H      -0.585699      1.590040     -0.418532
H      -1.984076     -0.477768      0.971716
H      -0.966608     -0.989686     -1.856512
H      -0.929866     -1.982601     -0.320159
H       2.405278      0.542231     -0.831423
H       1.426899      0.126011     -2.265377
H       0.772374      0.617770      1.506815
H       0.312212     -1.122554      1.656798
