16
Extracted from Q-Chem output
C       1.616476      0.928964      0.263775
C       0.244540      0.339720      0.222170
C      -0.108703     -1.004870      0.829850
C      -1.055937      1.092515     -0.024216
N      -1.532354     -0.002619     -0.910000
C      -0.325963     -0.756986     -0.629436
O       0.288456     -1.487878     -1.614697
H       2.371399      0.156658      0.105322
H       1.816975      1.404340      1.227029
H       1.741741      1.680046     -0.518915
H       0.751958     -1.619826      1.066845
H       0.069058     -2.414667     -1.501482
H      -0.948010     -1.101481      1.513624
H      -1.672569      1.278269      0.860439
H      -0.928145      2.025017     -0.578083
H      -2.389452     -0.452253     -0.607482
