16
Extracted from Q-Chem output
C       1.519777      0.778675      0.102155
C       0.179529      0.085946      0.233646
C       0.107825     -1.108072      1.134225
C      -1.099397      0.996979      0.123389
N      -1.425240      0.266197     -1.131576
C      -0.392301     -0.540490     -0.987932
O      -0.108083     -1.611041     -1.663985
H       2.304206      0.037224     -0.059913
H       1.743337      1.300044      1.034133
H       1.545705      1.495578     -0.723277
H       1.041178     -1.332325      1.643348
H       0.398868     -2.126826     -0.988370
H      -0.761994     -1.152145      1.783059
H      -1.826942      0.802366      0.907773
H      -0.950621      2.065819     -0.031427
H      -2.315356      0.086986     -1.570194
