14
Extracted from Q-Chem output
C      -1.535331      0.535835      0.166748
C      -0.128827     -0.011336      0.093408
C       0.957992      0.979782     -0.114867
N       2.011854      0.705114     -0.755116
C       0.207200     -1.200876      0.923458
O       0.361074     -1.626800      2.021293
C       0.119653     -1.425659     -0.510554
H      -1.841911      0.953290     -0.795037
H      -1.607423      1.320663      0.922501
H      -2.246938     -0.245016      0.438389
H       0.777297      1.956187      0.350654
H       2.650870      1.494782     -0.770766
H      -0.734669     -1.964834     -0.904178
H       1.048576     -1.518706     -1.064150
