13
Extracted from Q-Chem output
C       2.233500      0.341971     -0.182613
C       0.756855      0.315914      0.018930
O       0.401954      0.763736      1.238743
N      -0.043258     -0.072322     -0.884084
C      -2.071046     -0.856779      0.205334
C      -1.420279     -0.079551     -0.658749
H       2.604576      1.360215     -0.055196
H       2.721590     -0.281462      0.567929
H       2.474253     -0.017442     -1.178800
H      -1.549394     -1.572455      0.831034
H      -3.151151     -0.832538      0.258249
H      -0.559960      0.687172      1.323034
H      -1.978363      0.585266     -1.313933
