13
Extracted from Q-Chem output
C       2.245536      0.207428     -0.263325
C       0.812642      0.323106      0.184201
O       0.539454      0.840804      1.286926
N      -0.109286     -0.119825     -0.678285
C      -2.029903     -0.900755      0.183513
C      -1.432245      0.303529     -0.160549
H       2.691427      1.202174     -0.277702
H       2.799198     -0.392305      0.459766
H       2.312494     -0.246745     -1.248557
H      -1.462250     -1.587871      0.799785
H      -3.000609     -1.235069     -0.175179
H      -1.045177      0.820668      0.818505
H      -1.988667      0.992313     -0.791880
