18
Extracted from Q-Chem output
C      -1.160224     -1.039031      0.556989
C      -0.315247      0.166604      0.262537
C      -0.954758      1.207835     -0.609444
C       0.502369      0.641312      1.324373
C       1.577156     -0.225168     -0.151775
C       0.858292     -0.735274     -1.270320
H      -1.647594     -1.428287     -0.335215
H      -0.577147     -1.832979      1.023683
H      -1.917136     -0.718023      1.282402
H      -1.446003      0.772163     -1.477717
H      -0.230835      1.952507     -0.940075
H      -1.694130      1.723130      0.015225
H       0.791097      1.681670      1.359982
H       0.636332      0.039627      2.211403
H       2.025067     -0.935724      0.531078
H       2.176423      0.664626     -0.296408
H       0.609350     -1.783568     -1.322792
H       0.764514     -0.145271     -2.168434
