12
Extracted from Q-Chem output
N       1.519385     -1.153367     -0.299578
C       0.705300      0.969650      0.742033
C      -0.457887      1.520253      0.326475
C      -1.384919      0.556109     -0.270042
C      -0.847395     -0.660416     -0.240029
N       0.448642     -0.517875      0.417967
H       1.453242     -0.778284     -1.242180
H       2.355162     -0.727997      0.098532
H      -0.673231      2.577623      0.394559
H      -2.358623      0.782411     -0.684052
H      -1.182686     -1.630902     -0.567658
H       0.410902     -0.973212      1.330082
