12
Extracted from Q-Chem output
N       1.660600     -0.768659     -0.328901
C       0.634704      0.597997      0.935252
C      -0.252208      1.363588      0.169524
C      -1.279229      0.569916     -0.359724
C      -1.039298     -0.755483     -0.043269
N       0.134697     -0.762717      0.642771
H       1.288525     -0.334824     -1.173092
H       2.337313     -0.108434      0.047847
H      -0.193989      2.438839      0.096230
H      -2.146823      0.917075     -0.905116
H      -1.567755     -1.658247     -0.300631
H       0.411356     -1.535059      1.225217
