16
Extracted from Q-Chem output
C       2.772290      0.235416      0.387645
C       1.916135     -0.959677     -0.033507
C       0.485787     -0.729123      0.167723
C      -0.682371     -0.519894      0.343998
C      -2.105988     -0.244247      0.536653
C      -2.579630      0.985544     -0.239124
H       2.502374      1.124390     -0.183822
H       2.627975      0.459829      1.445210
H       3.830536      0.027597      0.220661
H       2.093972     -1.190403     -1.087496
H       2.215192     -1.848049      0.529557
H      -2.300062     -0.107263      1.604025
H      -2.681955     -1.121724      0.230083
H      -2.418739      0.852721     -1.309677
H      -3.643574      1.159884     -0.069852
H      -2.031942      1.875000      0.074851
