16
Extracted from Q-Chem output
C       2.643682      0.219213      0.632068
C       1.765225     -0.678841     -0.176503
C       0.423066     -0.862023      0.109333
C      -0.630598     -0.922190      0.849312
C      -1.941408     -0.245761      0.743614
C      -2.156403      0.687362     -0.447069
H       2.475570      1.274626      0.402450
H       2.417922      0.081161      1.693814
H       3.697212      0.005973      0.446578
H       0.410079     -0.459806     -0.998030
H       2.177029     -1.170064     -1.051120
H      -2.054204      0.313247      1.680871
H      -2.732955     -0.999833      0.791049
H      -2.090646      0.136465     -1.388722
H      -3.139502      1.161705     -0.409558
H      -1.402952      1.478243     -0.465563
