15
Extracted from Q-Chem output
C      -1.531854     -0.776560     -0.013537
C      -0.626095      0.425008      0.044184
O      -1.163242      1.535375     -0.552556
C       0.285884      0.605968      1.118647
C       1.666268     -0.786606     -0.183669
C       0.928450      0.260349     -0.679406
O       1.174507      1.194510     -1.435744
H      -2.464772     -0.542672      0.503054
H      -1.768850     -1.008916     -1.051006
H      -1.087104     -1.653796      0.454984
H      -0.468724      1.843075     -1.177424
H       0.707463      1.589661      1.280975
H       0.442066     -0.136302      1.885238
H       2.669710     -0.958042     -0.558465
H       1.197115     -1.576523      0.379671
