11
Extracted from Q-Chem output
O      -1.651608      1.630125      0.802946
C       0.979214      0.371820      0.175758
C       1.371207     -1.044598     -0.155716
O      -0.063789     -1.374956     -0.219770
C      -0.279230     -0.060522      0.086299
N      -1.580769      0.396153      0.144765
H      -1.976389      2.231798      0.128419
H       1.483185      1.291923      0.400811
H       1.829897     -1.231428     -1.127615
H       1.850555     -1.635176      0.625900
H      -2.185342     -0.259998      0.625349
