12
Extracted from Q-Chem output
N       1.840303      0.724726      0.223354
C       0.620372      0.367174     -0.236647
C      -0.094643     -0.875050      0.203896
N      -0.924203     -1.158941     -0.769413
C      -1.415897      0.294279     -1.006427
O      -1.595401      0.271605      0.790597
N      -0.140899      1.004385     -1.036124
H       2.460112      0.025823      0.589299
H       2.264853      1.523232     -0.216801
H       0.187715     -1.546930      1.008998
H      -1.646287     -1.844270     -0.599329
H      -1.570753      1.180488      1.114996
