15
Extracted from Q-Chem output
O       0.190117     -0.795259     -1.424523
C      -0.299644     -0.319415     -0.215428
C       0.583889     -0.574061      0.965197
C       2.300306      0.604833     -0.136229
O       1.786215      0.261686      0.989689
C      -1.774929     -0.431209     -0.026669
C      -1.148036      0.922319     -0.224226
H       1.038554     -0.328441     -1.538351
H       0.081758     -0.347042      1.904279
H       0.933418     -1.607031      0.976871
H       3.179164      1.217332      0.154218
H      -2.164208     -0.686059      0.950779
H      -2.312065     -0.860211     -0.861246
H      -1.275969      1.396955     -1.186985
H      -1.099709      1.597126      0.621269
