21
Extracted from Q-Chem output
C       1.588212     -1.682104     -0.083244
C       1.653200     -0.365591      0.244501
C      -0.226033      0.873331     -0.431099
C       0.488216      2.158984     -0.641558
C      -1.078130      0.085515     -1.093213
C      -1.458356      0.455214      0.307204
C      -1.485061     -0.538615      1.447984
H       1.277225     -2.425578      0.641922
H       0.130193     -1.864962     -0.908945
H       2.108599     -2.061688     -0.954714
H       1.408012     -0.027883      1.242756
H       2.233873      0.311023     -0.366475
H       1.058296      2.146654     -1.572252
H       1.168274      2.395919      0.178264
H      -0.244264      2.969588     -0.706421
H      -1.553307      0.051431     -2.061777
H      -0.524224     -1.379224     -1.111903
H      -2.232059      1.223956      0.413531
H      -1.276145     -0.045003      2.400760
H      -0.755372     -1.335047      1.311104
H      -2.470979     -1.003755      1.526597
