17
Extracted from Q-Chem output
C      -1.491023      0.440283      0.991743
C      -2.036066      0.118888     -0.325124
C      -0.992558     -0.831013      0.290796
C       0.330165     -0.841650     -0.233148
C       1.060832      0.251417     -0.779543
C       2.137447      0.299003      0.531564
O       1.427070      0.112443      1.615202
H      -0.749572      1.215231      1.112988
H      -2.084519      0.239717      1.872338
H      -3.029205     -0.302752     -0.400256
H      -1.711551      0.689434     -1.185020
H      -1.361832     -1.765648      0.687444
H       0.830580     -1.806267     -0.253321
H       1.634165      0.013516     -1.672989
H       0.521595      1.191831     -0.857952
H       2.819951     -0.520987      0.223304
H       2.713202      1.246916      0.455001
