13
smiles: [C:1]1([H:7])([H:8])[N:2]([H:9])[C:3]1=[C:6]([H:12])[H:13].[C:4](=[O:5])([H:10])[H:11]
C       -0.72383700      -0.91610400      -1.26538500
N       -1.29400300      -1.05059100       0.10245200
C        0.08520700      -1.01272100      -0.06983200
C        0.21966100       2.01803300       0.57492500
O       -0.95466800       1.95767600       0.35789300
C        1.23535100      -1.01168800       0.56650300
H       -0.88814700      -1.77609100      -1.90392200
H       -0.78076400       0.04832800      -1.76050800
H       -1.69271900      -0.19652200       0.47259400
H        0.95810000       2.17441100      -0.23464700
H        0.63242000       1.92156900       1.59748800
H        2.16530300      -0.99493400       0.01537400
H        1.27443800      -1.03741100       1.64800900
