13
Extracted from Q-Chem output
C      -1.000229     -0.712495     -0.725645
N      -0.963550     -1.127194      0.650357
C       0.089630     -0.194682      0.178195
C       0.186565      1.408546      0.185620
O       1.155879      1.621877     -0.676841
C       1.392737     -0.679914      0.175906
H      -0.759758     -1.484255     -1.446783
H      -1.701798      0.045226     -1.057820
H      -1.617114     -0.585986      1.208480
H       0.387030      1.719217      1.231426
H      -0.821903      1.776277     -0.089876
H       2.203371      0.036490      0.162289
H       1.582567     -1.745978      0.268492
