13
Extracted from Q-Chem output
O       0.716357     -2.316550     -0.976687
C       0.345366     -1.264496     -0.538875
C      -1.109224     -0.826128     -0.386716
C      -0.996453      0.545019      0.214622
C       0.275484      0.897377      0.394268
O       0.782007      2.039506      0.903913
C       1.252917     -0.144013     -0.042018
H      -1.641021     -1.548220      0.240110
H      -1.595066     -0.845112     -1.367180
H       0.064144      2.629660      1.147762
H      -1.850563      1.161189      0.466981
H       1.891852     -0.496467      0.771608
H       1.911419      0.199686     -0.843962
