16
smiles: [C:1]([C:2]1([O:4][H:12])[C:5]([H:13])([H:14])[C:6]1([H:15])[H:16])([H:7])([H:8])[H:9].[C:3]([H:10])[H:11]
C        0.60461200       1.38904400      -0.40080000
C        0.07297200      -0.01190500      -0.32090700
C        1.00831400      -0.84372200       2.05180900
O        0.99245400      -0.82075800       0.36275900
C       -0.70906600      -0.58741500      -1.45721100
C       -1.39128000      -0.25338400      -0.14409600
H       -0.08739100       2.03571100      -0.94080000
H        0.75097700       1.79458800       0.60184700
H        1.56463800       1.39715100      -0.91977200
H        1.76626500      -0.04305800       2.17981900
H        0.06304200      -0.30647000       2.27506400
H        0.65193400      -1.71537400       0.41545500
H       -0.56176800      -1.63578300      -1.68847800
H       -0.91344300       0.03384100      -2.32002200
H       -2.06092300       0.59665300      -0.10919400
H       -1.69177600      -1.08238700       0.48570300
