16
Extracted from Q-Chem output
C       0.333189      1.558864     -0.386266
C      -0.043226      0.131936     -0.171503
C       0.870263     -0.240667      1.626913
O       1.358930     -0.809337      0.278002
C      -0.657101     -0.646493     -1.316308
C      -1.429341     -0.347544     -0.046863
H      -0.186464      1.944397     -1.269980
H       0.091837      2.157204      0.488902
H       1.403140      1.637223     -0.578239
H       0.301950     -1.037864      2.115043
H       1.777338     -0.036168      2.204890
H       1.321402     -1.773245      0.234592
H      -0.389475     -1.681102     -1.488083
H      -0.889526     -0.098857     -2.221499
H      -2.214293      0.400789     -0.038997
H      -1.618128     -1.187054      0.609019
