15
smiles: [C:1]([C:2](=[O:3])[H:11])([H:8])([H:9])[H:10].[C:4](\[O:5][H:14])(=[C:6](\[O:7][H:12])[H:15])[H:13]
C       -1.51794000      -0.16291400      -1.12000600
C       -0.61609800      -0.91232000      -2.05360800
O        0.45224500      -1.36689600      -1.75085800
C        0.91059500       1.25014500       1.78928900
O        0.09588800       0.78289800       2.76553200
C        1.44727700       0.49487900       0.84144000
O        1.22408100      -0.86652200       0.86301700
H       -1.70473900       0.83709800      -1.52027000
H       -2.48543300      -0.66881400      -1.06569600
H       -1.07405800      -0.09306700      -0.12884700
H       -1.00021000      -1.03300200      -3.08900100
H        1.17079800      -1.20173100      -0.03232200
H        1.10390900       2.31117300       1.85548700
H       -0.01469000      -0.16406600       2.62705500
H        2.11074900       0.89500000       0.08605900
