14
Extracted from Q-Chem output
C       1.719979      0.604578      0.003522
C       0.616938     -0.415384      0.055696
O      -0.105601     -0.374515      1.288703
C      -1.412993     -0.388299      0.779151
C      -0.595833     -0.129125     -0.870604
O      -0.842371      1.089171     -1.324492
H       1.305150      1.609436      0.070276
H       2.413942      0.437839      0.828252
H       2.269655      0.519671     -0.935537
H       0.998586     -1.429060     -0.118355
H      -2.077006      0.302116      1.318965
H      -1.874864     -1.377144      0.720837
H      -0.922940     -0.978042     -1.491274
H      -1.495657      0.575484     -0.270601
