13
smiles: [N:4](=[C:5](/[O:6][H:7])[H:13])\[H:12].[O:1]=[C:2]([C:3]([H:8])([H:10])[H:11])[H:9]
O       -0.88089300      -1.09731000       1.14191600
C       -1.80527000      -0.77416400       0.44859500
C       -1.70968100       0.16525600      -0.71537500
N        1.67391300       0.74620900      -0.60858800
C        2.34872500       0.29989700       0.35419800
O        1.80522400      -0.46105900       1.31078600
H        0.86961200      -0.56271500       1.09153100
H       -2.06779900      -0.33565700      -1.61849100
H       -2.82102000      -1.17625700       0.65058500
H       -2.36953900       1.02003100      -0.54484600
H       -0.68515400       0.50472900      -0.85473300
H        2.24531100       1.30160000      -1.23404600
H        3.41175300       0.45547500       0.54401800
