16
smiles: [C:1]([C@@:2]1([H:10])[C:3]([H:12])=[C:4]([H:13])[C:6]1([H:15])[H:16])([H:7])([H:8])[H:9].[O:5]([H:11])[H:14]
C        1.50853800      -0.02365500      -0.75012300
C        0.92653000       0.13740600       0.64140600
C       -0.26364600       1.06264300       0.80096500
C       -1.08230600       0.10320900       1.22509900
O       -1.97139000      -0.21629300      -1.94972800
C       -0.04279100      -0.98849100       1.13011700
H        2.01626800       0.88764900      -1.07422700
H        0.72077500      -0.24303300      -1.47554000
H        2.23416300      -0.83986800      -0.78057300
H        1.72352500       0.33664900       1.36447800
H       -1.71020400       0.12289500      -1.09264700
H       -0.38633700       2.12536100       0.62616000
H       -2.11980100       0.09308800       1.53700700
H       -1.73476500       0.46796400      -2.57717700
H        0.23582700      -1.47199400       2.06933400
H       -0.23915800      -1.76047900       0.38174500
