16
Extracted from Q-Chem output
C       1.846179      0.041684     -0.617137
C       0.845718      0.140161      0.517874
C      -0.383401      1.036448      0.326438
C      -1.278593     -0.035159      0.597127
O      -1.851391     -0.175339     -1.199106
C      -0.160267     -1.039768      0.698713
H       2.371211      0.989987     -0.753194
H       1.341922     -0.199373     -1.556234
H       2.595094     -0.730619     -0.422576
H       1.369750      0.334830      1.458190
H      -0.998076      0.688807     -0.899059
H      -0.508259      2.083366      0.579072
H      -2.255673     -0.082536      1.064563
H      -2.723383      0.203463     -1.362721
H      -0.121859     -1.529004      1.673747
H      -0.154563     -1.798220     -0.083263
