13
Extracted from Q-Chem output
O       1.756854      0.222020      0.457625
C       0.573035      0.207049     -0.280209
C      -0.044748     -1.188779     -0.292086
C      -1.002377     -1.514898     -1.300563
N      -0.113947      1.889527      1.268541
C      -0.428056      1.188619      0.269097
H       1.645392      0.903766      1.137509
H       0.758994      0.491200     -1.325498
H      -0.059288     -1.644561      0.705295
H       0.620736     -1.858991     -0.934712
H      -1.433935     -2.494211     -1.028886
H      -0.855061      2.520665      1.556361
H      -1.390506      1.233180     -0.249931
