9
smiles: [H:8][H:9].[O-:1][C:2]1=[C:5]=[O+:4][C:3]1([H:6])[H:7]
O        0.22717500       2.02033800       0.47414500
C        0.23158500       0.84300000       0.57348800
C        0.98832500      -0.31020200      -0.11322700
O        0.19746400      -1.16550400       0.77512700
C       -0.50265200      -0.26640200       1.42638700
H        2.05529800      -0.40188300       0.08924300
H        0.76209700      -0.50537700      -1.16137000
H       -2.19122700      -0.06850300      -1.42509700
H       -2.37954200      -0.24891600      -0.72766000
