20
smiles: [C:1]([C:2]([C-:3]([N+:4]1=[C:5]([H:15])[C@:6]1([C:7]([H:18])([H:19])[H:20])[H:17])[H:14])([H:11])[H:12])([H:8])([H:9])[H:10].[H:13][H:16]
C        2.96505000      -0.18540200      -0.07146200
C        1.54143400      -0.58755600      -0.43495700
C        0.51181200       0.19270100       0.31403500
N       -0.68145100       0.30575200      -0.15055300
C       -1.62081500       0.04535800      -1.07363000
C       -2.03649900       0.66465100       0.21748100
C       -2.64088000      -0.08305200       1.37973400
H        3.15949700      -0.34433900       0.99177000
H        3.14319600       0.86933300      -0.28994900
H        3.69236500      -0.77294100      -0.63285500
H        1.36390900      -0.44429900      -1.50760400
H        1.40290400      -1.66086400      -0.25207500
H        0.79783900       2.31001600      -1.97000800
H        0.73785600       0.70563500       1.24132000
H       -1.81798600      -0.95895500      -1.42727600
H        0.16174300       1.92619000      -2.01937700
H       -2.24730900       1.73358900       0.20315700
H       -3.72900000      -0.06287400       1.29215300
H       -2.31798900      -1.12591800       1.37837300
H       -2.37620600       0.36520800       2.34027400
