20
Extracted from Q-Chem output
C       3.043674      0.062857     -0.363660
C       1.699663     -0.652595     -0.374107
C       0.638297      0.108892      0.353127
N      -0.631625     -0.116677      0.079392
C      -1.388603      0.126606     -1.023739
C      -1.833357      0.655068      0.294239
C      -2.897796      0.065306      1.180477
H       3.387348      0.245771      0.657180
H       2.970865      1.026058     -0.870946
H       3.804704     -0.533299     -0.868548
H       1.359310     -0.819733     -1.400666
H       1.805961     -1.644326      0.082679
H       0.446112      1.540140     -0.952999
H       0.854761      0.507556      1.340502
H      -1.845413     -0.600017     -1.680536
H      -0.255073      1.289709     -1.407740
H      -1.656883      1.726645      0.431405
H      -3.868094      0.503399      0.938481
H      -2.966642     -1.013875      1.037608
H      -2.695411      0.266109      2.235477
