17
Extracted from Q-Chem output
C      -2.419776     -0.607662     -0.255641
C      -1.244824      0.283550     -0.633062
C       0.078118     -0.220070     -0.082188
O       0.333150     -1.490765     -0.649375
C       1.199878      0.748158     -0.399157
C       2.975607      0.927542      1.106248
O       2.430785      0.236181      0.161236
H      -3.350518     -0.219462     -0.671637
H      -2.274111     -1.620501     -0.630824
H      -2.536695     -0.664022      0.829321
H      -1.159456      0.348959     -1.722344
H      -1.410527      1.299422     -0.262701
H       0.004487     -0.304941      1.012806
H       1.163841     -1.821778     -0.301031
H       1.028930      1.734866      0.033119
H       1.358557      0.811164     -1.476946
H       3.869435      0.317441      1.371138
