17
Extracted from Q-Chem output
C      -2.371086     -0.513230     -0.237959
C      -1.152249      0.341688     -0.555563
C       0.144824     -0.288993     -0.062811
O       0.301303     -1.515982     -0.723256
C       1.295132      0.677763     -0.352910
C       2.914875      0.826981      0.410445
O       2.543827     -0.395819      0.239260
H      -3.282088     -0.040796     -0.607960
H      -2.284005     -1.496052     -0.700193
H      -2.480996     -0.655547      0.839753
H      -1.072551      0.493803     -1.636490
H      -1.259833      1.329188     -0.096716
H       0.082303     -0.432907      1.025731
H       1.163867     -1.868453     -0.489585
H       1.079157      1.607221      0.195617
H       1.501846      0.829595     -1.403876
H       2.902277      1.077711      1.511247
