15
Extracted from Q-Chem output
C      -1.664939     -0.585926     -0.302046
O      -1.014921     -1.713884      0.071550
C      -0.013801     -0.985662      0.850637
C       1.263124     -0.778134      0.106005
C       1.346012      0.459384     -0.373759
C       0.173715      1.329848      0.010007
C      -0.800659      0.313050      0.600789
H      -0.827957     -0.165757     -1.767759
H      -1.695609     -0.345639     -1.553153
H       0.074128     -1.416249      1.848463
H       1.994098     -1.560882     -0.046890
H       2.173526      0.829780     -0.967141
H       0.469201      2.078201      0.752594
H      -0.243854      1.875076     -0.838707
H      -1.390476      0.691173      1.434848
