12
smiles: [C-:5]#[O+:6].[C:1]([C:2](/[N:3]=[N:4]/[H:11])=[N:7]\[H:12])([H:8])([H:9])[H:10]
C        1.87743700      -0.35769400       0.20117800
C        0.48028400      -0.13757100      -0.29102700
N       -0.39963400      -1.21657100       0.06820300
N       -1.15793100      -0.94959600       0.99609600
C       -3.31118500       1.12573700      -0.50993000
O       -3.13626200       2.21753700      -0.31138800
N        0.01530400       0.78519400      -1.00667400
H        2.54512700       0.42338700      -0.15843400
H        2.24376000      -1.32955200      -0.13419600
H        1.88479800      -0.36225400       1.29355700
H       -1.74134200      -1.78199200       1.15608200
H        0.74196600       1.45256600      -1.25249000
