12
Extracted from Q-Chem output
C       1.887205     -0.203601      0.014306
C       0.417853      0.023277      0.191083
N      -0.333244     -1.115260      0.391421
N      -1.561770     -0.858559      0.564611
C      -2.164121      0.492734     -0.619252
O      -3.053933      1.189766     -0.463599
N      -0.219893      1.124183      0.003770
H       2.104238     -0.486928     -1.017842
H       2.211254     -1.021011      0.657845
H       2.454909      0.693878      0.256587
H      -2.096192     -1.719619      0.406109
H       0.359332      1.865196     -0.379529
