14
Extracted from Q-Chem output
C       0.992343      0.084004      0.565081
C       1.580692     -0.929352     -0.504355
C       0.136356     -0.996492     -0.465204
O      -2.105829     -0.299202      0.960657
C      -1.643336      0.697975      0.095215
C      -0.264049      0.378887     -0.441073
H       0.803533     -0.230890      1.581236
H       1.575758      0.994656      0.504369
H       2.135127     -1.800731     -0.171505
H       2.113704     -0.334271     -1.250745
H      -1.628501     -1.105426      0.699628
H      -1.631639      1.650832      0.633512
H      -2.315309      0.822022     -0.766776
H       0.119753      1.114770     -1.155463
