19
smiles: [C:1]([C:2](=[C:5]([C:6]([H:14])([H:15])[H:16])[C:7]([H:17])([H:18])[H:19])[H:11])([H:8])([H:9])[H:10].[O:3]=[C:4]([H:12])[H:13]
C        1.74640600      -0.10194400      -1.21320300
C        1.06561000      -0.31200300       0.10345000
O        0.12194200       2.92899000      -0.94057400
C       -0.33096800       2.44913100       0.05664000
C       -0.17241000      -0.74433400       0.33158900
C       -0.69125900      -0.89350000       1.73464400
C       -1.16110400      -1.11871400      -0.73535900
H        2.03615400       0.94551300      -1.33505800
H        2.66545700      -0.69140500      -1.26936700
H        1.12420500      -0.37428800      -2.06436500
H        1.67402400      -0.07518500       0.97400900
H       -1.32099300       1.95410200       0.07097800
H        0.21571000       2.47304200       1.01883400
H        0.05986800      -0.61793100       2.47506600
H       -0.99913900      -1.92556000       1.92861200
H       -1.57396200      -0.26631000       1.89237100
H       -1.47887600      -2.15818100      -0.61105000
H       -0.77061900      -1.00605700      -1.74458900
H       -2.06224600      -0.50386300      -0.65285700
