19
Extracted from Q-Chem output
C       1.779914     -0.220154     -1.212819
C       1.049590      0.095004      0.025091
O       0.472618      2.008349     -0.748110
C      -0.377832      1.589118      0.152360
C      -0.297592     -0.208438      0.299668
C      -0.712681     -0.548690      1.711371
C      -1.149040     -0.829932     -0.782538
H       2.632301      0.438679     -1.350979
H       2.134704     -1.255515     -1.101058
H       1.133850     -0.175893     -2.084886
H       1.651744      0.426229      0.866664
H      -1.465768      1.730675     -0.042495
H      -0.175593      1.834772      1.212607
H       0.001709     -0.184080      2.450781
H      -0.809850     -1.630044      1.841373
H      -1.687556     -0.104857      1.935809
H      -0.909514     -1.885440     -0.941748
H      -1.037711     -0.304047     -1.731529
H      -2.201965     -0.773007     -0.498375
