12
Extracted from Q-Chem output
O      -1.889645      0.993617      0.365710
C      -1.250432     -0.240760      0.116112
C       0.229151     -0.072176     -0.138528
N       0.424632      0.682987     -1.391708
O       1.546517      0.719161     -1.795684
C       1.235923      0.105936      0.948004
C       1.299797     -1.008644      0.318808
H      -1.809449      1.529350     -0.427516
H      -1.398220     -0.858563      1.002134
H      -1.716890     -0.753974     -0.734517
H       1.580227      0.801469      1.691545
H       1.749651     -1.969187      0.143868
