11
Extracted from Q-Chem output
N       0.666892     -1.183966      0.385698
C       1.620076     -0.320401      0.138279
C       0.683219      0.921711      0.082858
C      -0.448521      0.416684     -0.852812
C      -0.618002     -0.428686      0.421447
O      -0.236410      0.690438      1.202266
H       1.114316      1.915835      0.048206
H      -1.234442      1.157993     -0.981242
H      -0.190773     -0.089669     -1.781037
H      -1.499768     -0.977134      0.744568
H       0.780639     -2.176155      0.504229
