11
Extracted from Q-Chem output
N       1.216164     -1.330654      0.264709
C       1.767468     -0.257556      0.097144
C       0.632572      0.906541      0.108935
C      -0.455045      0.364098     -0.838848
C      -0.815271     -0.372034      0.424738
O      -0.208352      0.578953      1.190030
H       1.010866      1.921874      0.115720
H      -1.171282      1.166521     -1.028506
H      -0.191530     -0.164141     -1.749090
H      -1.726881     -0.832898      0.786625
H       0.578515     -2.054052      0.541003
