19
smiles: [C:1](=[C:2]([O:3][H:12])[H:11])([H:9])[H:10].[C:4]1([H:13])=[C:6]([H:16])[C:5]1([H:14])[H:15].[C:7]([H:8])([H:17])([H:18])[H:19]
C        2.48411400      -1.42389000       0.21464300
C        1.55596200      -0.58019600       0.63297500
O        1.85749500       0.55694500       1.31408200
C       -0.86966800       2.47102500       1.08082000
C       -1.13408300       1.83981200      -0.25446200
C       -1.40290000       1.30289300       1.12046900
C       -1.18715400      -1.86929700      -1.60770000
H       -0.24179200      -1.50377400      -2.00595700
H        2.19459900      -2.31563200      -0.32129400
H        3.53480700      -1.24055500       0.39839400
H        0.49854600      -0.75632300       0.45293200
H        1.05459100       1.03540700       1.51962200
H       -0.48308400       3.33496100       1.59111200
H       -0.30285500       1.44076500      -0.83438900
H       -1.96284500       2.19697200      -0.86439100
H       -1.78893700       0.47547200       1.68846000
H       -1.77407000      -2.30879600      -2.41275900
H       -1.73826000      -1.04046100      -1.16600800
H       -0.99300200      -2.62315600      -0.84629500
