11
Extracted from Q-Chem output
C      -0.126152      1.007930      0.277950
C       1.028957      0.040930      0.384546
C       0.367543      0.271528     -0.929153
N      -0.689312     -0.792288     -0.806548
C      -1.069238     -0.196926      0.494015
C       0.076170     -1.131270      0.764375
H      -0.203201      2.066785      0.456958
H       2.060516      0.206078      0.653443
H       0.754602      0.619394     -1.875231
H      -2.092127     -0.266034      0.844540
H      -0.138072     -1.798024     -0.350857
