19
smiles: [C-:2]([O+:3]=[C:4]([C:5]([O:6][C:7]([H:17])([H:18])[H:19])([H:15])[H:16])[H:13])([H:11])[H:12].[C:1]([H:8])([H:9])([H:10])[H:14]
C        1.86465700       1.46532000       1.06913200
C        2.15272300      -1.22058700      -1.49722700
O        0.88445300      -1.04400300      -1.35217000
C        0.10914200      -1.31146500      -0.34734500
C       -1.28796100      -0.86053600      -0.44287900
O       -1.44413000       0.44651300       0.09613300
C       -2.77992500       0.87242000       0.07328900
H        2.09219800       1.19449400       2.09905800
H        2.14157300       2.50443900       0.89750600
H        2.42701600       0.82355100       0.39266700
H        2.73187300      -1.63636200      -0.68345500
H        2.54977300      -0.93911600      -2.45670900
H        0.56599500      -1.69372400       0.55794200
H        0.79838200       1.33925800       0.88759500
H       -1.60741400      -0.86665800      -1.49470700
H       -1.93853200      -1.55416000       0.10911000
H       -3.42548600       0.21150300       0.66830300
H       -3.17688300       0.91041600      -0.95057800
H       -2.81288700       1.87356800       0.50129100
