19
Extracted from Q-Chem output
C       2.262280      0.981599      0.501272
C       2.263133     -0.945731     -0.931231
O       0.997617     -0.827048     -1.204227
C       0.172736     -0.628279     -0.145097
C      -1.238895     -0.331728     -0.557363
O      -1.877566      0.270777      0.540160
C      -3.233910      0.530210      0.297588
H       1.790387      1.601607      1.270737
H       2.537184      1.629498     -0.328177
H       3.156859      0.548204      0.941480
H       2.560558     -1.547753     -0.079911
H       2.918658     -0.860646     -1.787960
H       0.281353     -1.371116      0.649054
H       1.109185      0.343668      0.346134
H      -1.231369      0.338601     -1.429121
H      -1.788589     -1.242998     -0.848372
H      -3.786313     -0.391722      0.070880
H      -3.367350      1.228501     -0.539351
H      -3.648231      0.977609      1.199988
