14
Extracted from Q-Chem output
C      -1.714555     -1.299075      0.025915
C      -0.772101     -0.177891     -0.341214
C       1.190044      2.207908     -0.401339
N       1.586794      1.291596      0.449004
C       1.566048     -0.148276      0.356094
O       2.447160     -0.780011      0.850255
O       0.572244     -0.700820     -0.321170
H      -1.522614     -1.652597      1.039254
H      -1.601330     -2.137082     -0.661535
H      -2.744391     -0.941681     -0.028661
H      -0.967241      0.187757     -1.350214
H      -0.861057      0.657471      0.354370
H       0.687883      1.680156     -1.230431
H       2.146965      1.581194      1.242810
