14
Extracted from Q-Chem output
C      -1.527285     -1.002445      0.177347
C      -0.538121     -0.191050     -0.623960
C       0.354310      1.715555     -0.063894
N       1.377962      1.045839      0.570784
C       1.710876     -0.253938      0.182430
O       2.666950     -0.879575      0.508344
O       0.731326     -0.782738     -0.604225
H      -1.229349     -1.045273      1.226622
H      -1.564592     -2.021912     -0.209885
H      -2.522935     -0.562499      0.111715
H      -0.835545     -0.016399     -1.655663
H      -0.684916      0.933620     -0.052414
H       0.554079      1.750023     -1.140176
H       1.518809      1.209912      1.556065
