9
Extracted from Q-Chem output
C      -0.806891      0.395031      0.348322
N       0.305304      1.035957     -0.032463
C       0.845612     -0.653591     -0.076435
O       1.583741     -1.032355      0.790940
H      -0.886161      0.136264      1.401418
H      -1.745368      0.436217     -0.208294
H      -0.364886     -1.039021     -0.031587
H       0.229088      1.386995     -0.981969
H       0.952701     -0.643859     -1.165664
