16
Extracted from Q-Chem output
C      -2.150158      0.085060     -0.493726
C      -0.748526      0.477144     -0.051111
C      -0.247259     -0.241849      1.157741
O       1.225646     -0.246201      0.992802
C       1.509244     -0.232961     -0.288514
O       1.089372     -1.120040     -1.186324
N       2.632583      0.389799     -0.603350
H      -2.943230      0.344501      0.224736
H      -2.413617      0.576601     -1.433827
H      -2.241145     -0.995444     -0.667363
H       0.133011     -0.837799     -1.189210
H      -0.680715      1.559349      0.091183
H      -0.369794      0.202204      2.152893
H      -0.587201     -1.281569      1.201322
H       2.987611      0.317490     -1.539092
H       3.075574      0.987499      0.070056
