14
Extracted from Q-Chem output
C       1.359054     -0.491205      0.701218
C       0.432558      0.634719      0.282122
O       1.146440      1.802716     -0.088300
C      -0.353623      0.320020     -0.994827
C      -1.830921     -0.565979     -0.436931
O      -1.682121      0.755541     -0.881754
H       1.940495     -0.844521     -0.153616
H       2.048621     -0.134463      1.466583
H       0.802981     -1.338233      1.111254
H      -0.215603      0.943914      1.109494
H       1.533576      1.640481     -0.956035
H      -0.815554     -1.065080     -0.823545
H      -1.920946     -0.670995      0.641293
H      -2.554819     -1.120264     -1.030450
