15
Extracted from Q-Chem output
O       0.486137     -0.247316     -1.116268
C      -0.390707     -0.076288     -0.006813
C       0.752603     -0.027975      0.982879
C       1.625095     -0.328280     -0.247940
O       2.629752      0.553089     -0.586091
C      -1.692026     -0.781564      0.070849
C      -1.632721      0.724456     -0.110319
H       2.251505      1.434866     -0.651916
H       0.943709      0.954246      1.416071
H       0.753131     -0.784930      1.764685
H       2.078036     -1.321388     -0.275773
H      -2.013501     -1.175872      1.026758
H      -1.980647     -1.369720     -0.790660
H      -1.884703      1.113398     -1.088508
H      -1.908975      1.358696      0.722818
