16
smiles: [C:1]([O:2][C:3](=[C:6]([H:15])[H:16])[H:10])([H:7])([H:8])[H:9].[C:4](=[C:5]([H:13])[H:14])([H:11])[H:12]
C        1.92157400      -0.21143200       0.12986400
O        0.87966500      -1.00415500       0.65810500
C        0.11819100      -1.64541300      -0.25645300
C       -0.73054700       2.63396400       0.02128000
C       -1.42548700       1.50950700       0.02671300
C       -0.85712300      -2.47446500       0.08072300
H        1.53103800       0.57132900      -0.52861200
H        2.64297200      -0.82137100      -0.42324900
H        2.42305200       0.25408000       0.97570800
H        0.35641800      -1.42985600      -1.29680800
H        0.03377200       2.83413500       0.76353300
H       -0.89752100       3.40164600      -0.72570100
H       -2.18965300       1.30909400      -0.71564300
H       -1.25840300       0.74175800       0.77362400
H       -1.08596900      -2.68331000       1.11759900
H       -1.44055500      -2.95440400      -0.69090700
