16
Extracted from Q-Chem output
C       2.249948      0.018783      0.215665
O       1.105392     -0.740381      0.606064
C       0.096043     -0.769173     -0.219465
C      -0.575832      1.415032     -0.122394
C      -1.670056      0.509339     -0.002908
C      -1.110282     -1.401774      0.123169
H       2.007082      1.078894      0.276356
H       2.545046     -0.239222     -0.803752
H       3.039560     -0.247839      0.912429
H       0.307484     -0.566790     -1.264746
H      -0.266106      1.962765      0.758250
H      -0.389301      1.881505     -1.081636
H      -2.329014      0.365389     -0.853337
H      -2.201765      0.464604      0.940983
H      -1.234463     -1.718517      1.149073
H      -1.573076     -2.010073     -0.643824
