15
Extracted from Q-Chem output
C      -0.210728      1.899583      0.304010
C      -0.326709      0.482861     -0.120710
C      -0.186362     -1.441372      0.543677
C      -1.376296     -0.536450      0.251306
O       0.748948     -0.354237      0.243356
C       1.788239     -0.676324     -1.250121
O       1.430830      0.018559     -2.112940
H       0.685834      2.357478     -0.122992
H      -0.173195      2.047807      1.397193
H      -1.063490      2.463392     -0.078563
H      -0.016367     -2.280114     -0.132579
H      -0.043346     -1.741643      1.580475
H      -2.049824     -0.877190     -0.540310
H      -1.975226     -0.309704      1.142698
H       2.776425     -1.147492     -1.095739
