17
smiles: [C:1]([C:2]([H:10])([H:11])[H:13])([H:7])([H:8])[H:9].[C:3]1([H:12])=[C:4]([H:14])[N:5]1[C:6]([H:15])([H:16])[H:17]
C        2.68496500       0.04231500       0.40292600
C        1.88439000      -0.31222400      -0.84286800
C       -1.03456900      -0.68009800       1.12036700
C       -1.29378100       0.39938800       1.73815900
N       -1.43635300       0.46577300       0.25909000
C       -2.82374200       0.39840300      -0.20492100
H        2.81654000       1.12203100       0.49768900
H        2.18704200      -0.30932500       1.30868400
H        3.67846700      -0.40967700       0.37855200
H        2.38247600       0.03914500      -1.74864000
H        1.75254200      -1.39192000      -0.93747000
H       -0.68294500      -1.68806300       1.00463900
H        0.89099600       0.14001500      -0.81866500
H       -1.34670400       1.06101800       2.58225300
H       -2.84720200      -0.07966300      -1.18687600
H       -3.21327700       1.41319800      -0.31450200
H       -3.47718200      -0.16172500       0.47775100
