16
Extracted from Q-Chem output
C       1.560110     -0.777285      0.942756
C       0.139795     -0.556358      0.554810
C       0.279181      1.158381     -1.341976
C      -0.395769      0.716251     -0.043098
C      -1.839092      0.341246     -0.210039
N      -2.114957     -0.841864      0.181651
C      -0.894740     -1.395927      0.655003
H       1.880931     -0.056478      1.699451
H       2.229429     -0.663178      0.085487
H       1.702207     -1.778991      1.348798
H       1.332983      1.384993     -1.173610
H      -0.195814      2.053791     -1.745561
H      -0.327417      1.529038      0.692970
H      -2.598578      0.995313     -0.628605
H       0.214373      0.368613     -2.092696
H      -0.893377     -2.406688      1.040960
