10
Extracted from Q-Chem output
N       1.761653     -0.313218      0.208577
C       0.398190     -0.116762      0.071355
N      -0.447380     -1.123070     -0.080590
N      -1.631039     -0.526338     -0.104569
N      -1.626911      0.774589      0.010082
C      -0.342297      1.078496      0.128496
H       2.328588      0.410687     -0.199405
H       2.055594     -1.231681     -0.083099
H      -2.481846     -1.050247     -0.200815
H      -0.014552      2.097544      0.249968
