14
Extracted from Q-Chem output
O       1.797832      0.018143     -0.112889
C       0.933117      0.403296      1.036088
C      -0.368687      0.901393      0.456644
C      -0.884165     -0.410901     -0.124272
O      -1.459143     -0.370410     -1.415258
C       0.386666     -1.221829     -0.175243
H       1.893792      0.741561     -0.766735
H       1.473507      1.119898      1.659773
H      -0.257135      1.679865     -0.327906
H      -1.031195      1.299173      1.227215
H      -1.563831     -0.896673      0.589453
H      -2.163241      0.279793     -1.416734
H       0.702786     -1.495459     -1.180555
H       0.550335     -1.991184      0.562654
