11
Extracted from Q-Chem output
C      -1.809573     -0.241288     -0.681074
N      -0.432736     -0.473193     -0.524136
C       0.238956      0.283722      0.308502
O      -0.465093      1.193039      0.933915
C       1.643363      0.190309      0.465604
C       2.830079      0.089924      0.599832
H      -2.201598     -0.699814     -1.579483
H      -1.317805      1.209352      0.355559
H      -2.376279     -0.482040      0.217153
H       0.093831     -1.072846     -1.142716
H       3.884560      0.007192      0.723944
