14
Extracted from Q-Chem output
C       2.024728     -0.353992     -0.146884
C       0.835941      0.059204     -0.570250
O       0.608134      1.318229     -1.055455
C      -0.418584     -0.755822     -0.564252
C      -1.536726     -0.135372      0.276671
O      -2.140373      0.983124     -0.330912
H       2.149242     -1.357028      0.232863
H       1.418822      1.831606     -1.015003
H       2.898218      0.287733     -0.171064
H      -0.782057     -0.868177     -1.590281
H      -0.183093     -1.749800     -0.181678
H      -1.146512      0.117436      1.272392
H      -2.329854     -0.872519      0.413830
H      -1.439655      1.590035     -0.585975
