14
Extracted from Q-Chem output
C       2.071314     -0.126556     -0.792044
C       0.782537      0.126905     -0.272030
O       0.704717      1.370865      0.045320
C      -0.395439     -0.776382     -0.135747
C      -1.711081     -0.061316      0.141218
O      -2.086090      0.798521     -0.910185
H       2.260884     -0.945637     -1.476564
H       1.776127      1.313071     -0.615744
H       2.846393      0.009473     -0.038412
H      -0.462651     -1.357466     -1.060718
H      -0.170237     -1.498837      0.656153
H      -1.646769      0.481104      1.090596
H      -2.507474     -0.801095      0.237988
H      -1.503998      1.562006     -0.885830
