10
Extracted from Q-Chem output
C      -1.691908      0.078215      0.645885
O      -0.303681     -0.257196      0.733399
C       0.386834     -0.158008     -0.398140
O      -0.046457      0.193094     -1.463055
C       1.785400     -0.672193     -0.262625
O       2.567506      0.325201      0.012301
H      -2.095578     -0.078310      1.642292
H      -1.814521      1.117920      0.343719
H      -2.192812     -0.566788     -0.075547
H       3.478151      0.006916      0.046484
