10
Extracted from Q-Chem output
C      -1.687990      0.037834      0.627976
O      -0.281132     -0.214568      0.730108
C       0.419970     -0.026540     -0.378552
O      -0.005704      0.320540     -1.444469
C       1.867449     -0.392083     -0.191384
O       2.719475      0.549808      0.019591
H      -2.097535     -0.189346      1.607861
H      -1.867149      1.081079      0.370170
H      -2.131399     -0.603618     -0.132864
H       3.092066     -0.564681     -0.082347
