12
Extracted from Q-Chem output
C      -1.772882      0.546847      0.078640
C      -0.347901      0.280564     -0.005465
C      -1.211936     -0.885917     -0.053651
O       1.816703     -1.240546     -0.655262
C       1.876441     -0.146611     -0.181821
O       3.020279      0.385676      0.256947
N       0.803558      0.784955     -0.028575
H      -2.183412      0.844149      1.036364
H      -2.259560      0.988079     -0.783231
H      -1.249470     -1.529680      0.817048
H      -1.310660     -1.398885     -1.002282
H       2.830294      1.284714      0.548151
