12
Extracted from Q-Chem output
C       1.158419     -0.488033     -0.258997
C      -0.148782     -0.513788      0.549060
C      -0.583073      0.956512      0.601907
O      -0.571121      1.205289     -0.796391
C      -0.818323     -0.764601     -0.728288
O      -1.344641     -1.326163     -1.570250
H       0.416704      0.651206     -1.001215
H       1.937372      0.077615      0.254461
H       1.501907     -1.464827     -0.584985
H      -0.350551     -1.180787      1.388707
H       0.119702      1.587366      1.152485
H      -1.590849      1.088048      0.998226
