10
smiles: [C:2](=[O:3])=[N:4][H:9].[N:1]([C:5](=[O:6])[H:10])([H:7])[H:8]
N        0.82704800       0.94290000       1.11431000
C       -0.18241500      -1.72820400      -2.12014600
O       -0.23610600      -2.41244700      -3.05507300
N        0.01160900      -1.03413800      -1.15109600
C       -0.50184000       1.12564600       1.29615800
O       -1.36589700       0.56799700       0.66672700
H        1.14179500       0.30096500       0.40787500
H        1.50112800       1.43560000       1.66854300
H       -0.69715200      -0.56346600      -0.61978600
H       -0.72412300       1.85429300       2.09715200
