10
Extracted from Q-Chem output
N       0.719634     -0.046043      0.561469
C       0.423717     -0.494761     -0.914958
O       1.267275     -1.040810     -1.565859
N      -0.802238     -0.066499     -0.967309
C      -0.675702      0.604981      0.810236
O      -1.370726      0.116957      1.654466
H       0.827108     -0.843691      1.183313
H       1.526258      0.567010      0.638179
H      -1.340556     -0.215927     -1.808794
H      -0.635932      1.663694      0.533930
