13
Extracted from Q-Chem output
C      -1.719437     -0.609057      0.065989
C      -0.390965      0.032550      0.206523
C       0.049011      1.411604      0.088275
C       0.666680      0.352162     -0.882653
C       1.405500     -0.457547     -0.004087
O       2.588781     -1.000648     -0.045337
O       0.612974     -0.747900      1.005004
H      -2.249023     -0.632651      1.021115
H      -1.619694     -1.627645     -0.311600
H      -2.313149     -0.033770     -0.644067
H       0.660439      1.852643      0.869456
H      -0.638553      2.100307     -0.388164
H       3.008810     -0.702587     -0.862516
