16
Extracted from Q-Chem output
C      -2.548813     -0.396602      0.138737
C      -1.120502      0.042567      0.129225
C      -0.615337      1.339476      0.211800
C       0.756277      1.276370      0.016581
C       1.086331     -0.072090     -0.160369
C       2.408449     -0.756891     -0.014680
N      -0.128950     -0.853675     -0.051214
H      -2.636144     -1.396871      0.562541
H      -3.160273      0.285303      0.730786
H      -2.966132     -0.424447     -0.871454
H      -1.203624      2.235301      0.354741
H       1.454876      2.100080      0.014459
H       2.390234     -1.739555     -0.486151
H       3.203732     -0.166549     -0.470268
H       2.647533     -0.899622      1.041319
H       0.446102     -0.579785     -1.145811
