17
Extracted from Q-Chem output
C       2.246915      0.092767      0.325843
C       0.780458     -0.077788      0.039991
C       0.062244     -1.120800      0.458679
C      -1.385613     -1.191363      0.067383
C      -1.771785      0.164216     -0.482651
C       0.196665      0.954011     -0.830102
O       0.161596      2.212332     -0.343649
H       2.448572      1.044159      0.824313
H       2.818978      0.095680     -0.604204
H       2.611703     -0.711309      0.963865
H       0.522491     -1.945119      0.993861
H      -2.017909     -1.490295      0.910692
H      -1.531294     -1.956591     -0.703447
H      -2.561102      0.148668     -1.237450
H      -1.997146      0.914219      0.272385
H      -0.860412      0.585375     -1.352828
H       0.188309      2.216912      0.624109
