12
Extracted from Q-Chem output
O      -1.402396     -0.288863     -0.317918
C      -1.956259     -1.453766     -0.387216
C      -0.436787     -0.096580      0.740010
C       0.619403      0.865539      0.252556
C       1.568601      0.285000     -0.765749
O       1.606889     -0.872267     -1.073808
H      -2.645529     -1.339446     -1.254780
H      -0.032002     -1.073174      1.002203
H      -0.977044      0.320417      1.590438
H       0.163530      1.766873     -0.168476
H       1.226877      1.208173      1.097992
H       2.269554      1.014971     -1.220688
