14
Extracted from Q-Chem output
C      -1.994483      0.642541     -0.210133
O      -1.126182     -0.228153      0.480704
C      -0.330888     -1.010193     -0.360439
C       0.764064     -0.067684     -2.129181
C       0.900299     -0.229636     -0.856775
C       1.936425      0.211473      0.126079
H      -2.715034      0.078002     -0.813626
H      -2.529497      1.220800      0.540755
H      -1.441089      1.321506     -0.867881
H       0.038563     -1.851740      0.229629
H      -0.908933     -1.414626     -1.199871
H       2.412720     -0.658920      0.582121
H       2.702865      0.820373     -0.349259
H       1.461317      0.791435      0.918450
