14
Extracted from Q-Chem output
C      -2.255254      0.661223     -0.413878
O      -1.257099     -0.002646      0.337811
C      -0.405223     -0.783785     -0.402098
C       0.359815      0.143103     -1.715796
C       1.201899      0.019033     -0.800047
C       2.285187      0.041370      0.182482
H      -2.863891     -0.057136     -0.974228
H      -2.883976      1.187652      0.301336
H      -1.808718      1.366959     -1.117623
H       0.160751     -1.396819      0.304681
H      -0.910969     -1.468077     -1.084014
H       2.708292     -0.950685      0.348304
H       3.073522      0.691520     -0.197780
H       1.937508      0.450512      1.132260
