15
Extracted from Q-Chem output
O       0.034800      2.680249     -0.404180
C      -0.093843      1.485976     -0.209288
C      -1.188539      0.626792     -0.545785
C      -0.958303     -0.724044     -0.023441
C       0.450132     -0.783424      0.489229
C       1.502684     -0.436352     -0.520750
C       0.992236      0.618099      0.411275
H      -2.030057      0.889821     -1.165957
H      -1.734862     -0.129572      0.777108
H      -1.639644     -0.998718      1.197041
H      -1.409461     -1.583994     -0.512826
H       0.694068     -1.467439      1.288924
H       1.230722     -0.363033     -1.566145
H       2.484427     -0.847892     -0.326766
H       1.637756      1.039371      1.168280
