10
Extracted from Q-Chem output
O       2.168717     -0.185179     -0.144141
C       0.844855      0.076058     -0.023497
C      -0.182169     -0.789615      0.234942
N      -1.332808     -0.075701      0.187513
N      -1.061723      1.242421      0.035735
C       0.313777      1.395328     -0.122258
H       2.331568     -1.123312     -0.033741
H      -0.194241     -1.848130      0.449159
H      -2.262090     -0.380115      0.417131
H      -0.681024      1.686303     -0.996016
