15
Extracted from Q-Chem output
O       0.079259     -0.377420     -1.512058
C      -0.261267     -0.016625     -0.317042
C       0.732223      0.020189      0.686616
C       2.133975      0.435123      0.445616
O       2.481858      1.150497     -0.454461
C      -1.703445     -0.488211      0.205489
C      -1.540320      0.899276     -0.146713
H       0.924539     -1.386321     -0.956923
H       0.437157     -0.020073      1.732948
H       1.269063     -1.603518     -0.167927
H       2.858793      0.061839      1.195481
H      -1.767542     -0.771520      1.246957
H      -2.139181     -1.162701     -0.517913
H      -1.864263      1.250156     -1.115541
H      -1.473396      1.650819      0.626171
