16
Extracted from Q-Chem output
C       1.884574      1.280998     -0.181347
O       0.732760      0.795342      0.469559
C      -0.514462     -0.503046     -0.681180
C      -0.332962     -1.899331     -0.234655
C      -1.652944      0.312552     -0.330436
O      -1.506037      1.601677     -0.383319
H       2.688510      0.554354     -0.054054
H       1.713907      1.439734     -1.253154
H       2.202285      2.232357      0.254626
H       0.059972     -0.137505     -1.525972
H       0.487420     -1.890252      0.488350
H      -0.054883     -2.570174     -1.046796
H      -1.222064     -2.267029      0.278829
H      -2.110662     -0.242542     -1.285926
H      -2.267573     -0.127435      0.480575
H      -0.056424      1.406013      0.246775
