13
Extracted from Q-Chem output
C      -1.627193     -0.710605     -0.053696
C      -0.518258      0.190547     -0.516469
O      -0.068027      1.066752      0.505532
C       1.327701      1.035661      0.360302
C       1.399270     -0.217098     -0.486108
N       1.961081     -1.176742     -0.963651
H      -2.497634     -0.125175      0.257465
H      -1.946186     -1.371524     -0.863019
H      -1.312201     -1.322854      0.793466
H      -0.770286      0.742599     -1.429515
H       0.613662     -0.972870     -1.026505
H       1.842724      0.949209      1.320595
H       1.721818      1.896590     -0.192617
