13
Extracted from Q-Chem output
N      -2.126927     -0.262774      0.423924
C      -0.977765      0.109457     -0.371311
C      -0.284747      1.423595     -0.083592
C       1.038570      1.081041      0.060815
C       1.207440     -0.325646     -0.038673
O       2.313410     -1.044189      0.061414
N       0.065843     -0.933755     -0.253913
H      -2.922713      0.276909      0.110256
H      -1.965297      0.013311      1.385834
H      -1.279487      0.146240     -1.424885
H       1.871395      1.745489      0.266612
H       3.059612     -0.456377      0.211567
H      -0.060413     -1.926879     -0.345523
