13
Extracted from Q-Chem output
N      -2.216286     -0.252201      0.470122
C      -0.912319      0.099056      0.074713
C      -0.269958      1.376957      0.216166
C       1.117893      1.035638      0.054226
C       1.258397     -0.323612     -0.047425
O       2.328999     -1.115712     -0.198909
N       0.045855     -0.920424     -0.032353
H      -2.780738     -0.646147     -0.268138
H      -2.677824      0.551990      0.868410
H      -0.886484      0.833915     -0.925691
H       1.936060      1.741100      0.021151
H       3.118660     -0.570189     -0.211666
H      -0.117543     -1.911282     -0.016547
