10
Extracted from Q-Chem output
N      -1.696511      0.050528     -0.292773
C      -0.381782     -0.259520     -0.060193
N       0.094897     -1.453651     -0.159042
O       1.475874     -1.346661      0.045136
C       1.861625     -0.104880      0.382725
C       0.687612      0.666269      0.261841
H      -2.069949      0.821399      0.232518
H      -2.313426     -0.743556     -0.344091
H       1.710024      0.703412     -0.601524
H       0.605299      1.712380      0.520497
