11
Extracted from Q-Chem output
O      -0.264925      1.917236      1.130966
C       0.451643      0.824304      0.639889
C       1.384393     -1.473389     -0.532806
O       0.104139     -1.270225     -0.681514
C      -0.452982     -0.104610     -0.115746
N      -1.672242      0.116009     -0.255777
H      -1.185925      1.804802      0.864672
H       1.259332      1.145850     -0.025511
H       1.530031     -2.436759     -1.064725
H       0.929962      0.266625      1.451775
H      -2.148318     -0.605549     -0.789291
