10
Extracted from Q-Chem output
N       2.014330      1.069703      0.202753
C       1.497543      0.000884      0.115954
C       0.267626     -0.609103      0.404894
C      -1.062565     -0.716461     -0.352750
C      -0.470583      0.632906     -0.158938
H       0.189976     -0.804412      1.466754
H      -1.826106     -1.097434      0.317039
H      -1.094448     -1.146769     -1.347908
H       0.744419      1.539356      0.364027
H      -0.071671      0.891437     -1.137821
