16
Extracted from Q-Chem output
C       1.021455      1.277320      0.170647
C       0.456992     -0.129262     -0.041962
C      -0.417877     -0.557870      1.145218
C      -1.827835      0.264911     -0.332599
C      -0.615048     -0.164713     -1.150721
C       1.553977     -1.072382     -0.278865
N       2.408464     -1.816940     -0.459343
H       1.596675      1.593204     -0.699759
H       1.675848      1.301012      1.043369
H       0.200233      1.978117      0.322244
H      -0.046922     -0.270854      2.130373
H      -0.692587     -1.608704      1.126487
H      -2.558257     -0.557852     -0.292636
H      -1.353579      0.155427      1.031207
H      -0.671617     -1.169021     -1.579769
H      -0.407381      0.545219     -1.954551
