16
Extracted from Q-Chem output
C      -2.260202     -0.941879      0.073812
C      -1.293610      0.022775     -0.580112
O      -0.335477      0.498322      0.356585
C       1.493344      0.956085     -0.340837
C       2.154652      0.211299      0.692328
O       1.711219     -0.982301      0.916308
H      -1.731504     -1.818596      0.452703
H      -3.003653     -1.279118     -0.650886
H      -2.777443     -0.463067      0.905973
H      -1.813640      0.901551     -0.966169
H      -0.787065     -0.466570     -1.422045
H       1.564540      2.039208     -0.393909
H       1.256242      0.415901     -1.249516
H       2.532392      0.818517      1.534060
H       3.050130      0.388756     -0.123094
H       0.185176     -0.293013      0.715644
