14
Extracted from Q-Chem output
C      -0.871871     -1.057490      0.548264
C      -0.639151      0.404499      0.168292
C       0.762281      0.676515     -0.425288
C       2.360580      0.101516      0.095664
O       1.590872      0.451509      1.071982
C      -1.601970      0.828083     -0.856691
N      -2.340508      1.148613     -1.673827
H      -1.897017     -1.205014      0.885374
H      -0.193083     -1.339616      1.350822
H      -0.700834     -1.712621     -0.307776
H      -0.789037      1.048159      1.036296
H       0.888251     -0.027777     -1.263139
H       0.935724      1.702609     -0.715306
H       2.503640     -1.017168      0.100467
