12
Extracted from Q-Chem output
O       0.464197     -0.523655      2.001757
C       0.548490     -0.199262     -0.862887
C      -0.702857     -0.391218     -0.054613
C      -0.557532      0.084362      1.370476
O      -1.256374      0.896055      1.908925
C       0.615915      0.553192     -1.948694
H       0.495043     -0.164725      2.897540
H       1.432102     -0.720101     -0.507409
H      -0.951074     -1.456904     -0.011532
H      -1.544555      0.140256     -0.494385
H      -0.248575      1.090231     -2.324167
H       1.540187      0.656194     -2.503466
