14
Extracted from Q-Chem output
C      -1.115087     -1.033838     -0.643087
C      -1.571863      0.424605     -0.585681
C      -0.350632     -0.015158      0.056568
C       0.573933      0.225800      1.063294
C       1.690904      0.321589     -0.396405
O       0.999999      0.764530     -1.403296
H      -0.730711     -1.371195     -1.595354
H      -1.605119     -1.788144     -0.037484
H      -2.380099      0.707518      0.080385
H      -1.470864      1.002459     -1.492716
H       0.922754     -0.612354      1.653983
H       0.525138      1.188871      1.558195
H       2.536222      0.932132     -0.025008
H       1.966638     -0.748648     -0.379834
