14
Extracted from Q-Chem output
C      -0.488813      1.332939      0.010082
N      -0.315904     -0.060651     -0.487129
C      -0.892459     -1.037737      0.468617
C       1.084228     -0.440178     -0.864167
C       1.929491     -0.391757      0.256238
N       2.578132     -0.409080      1.218968
H      -1.540111      1.538810      0.218039
H      -0.111466      2.015148     -0.747752
H       0.105555      1.435367      0.916128
H      -0.294781     -1.013977      1.377850
H      -0.821534     -2.024695      0.020523
H      -1.926364     -0.773283      0.689648
H       1.401006      0.140852     -1.723318
H      -0.843352     -0.150726     -1.350089
