19
smiles: [C:1]([C:2](=[O:3])[H:12])([H:8])([H:9])[H:10].[C:4]1([H:13])=[C:6]([H:16])[C:5]1([H:14])[H:15].[C:7]([H:11])([H:17])([H:18])[H:19]
C        2.28656300       0.28598200      -0.38811900
C        2.15939600       1.37550200       0.63332100
O        1.35093000       1.38841900       1.51979400
C       -0.86443600      -1.17801600       1.25250800
C       -2.23107300      -1.61738000       0.81631900
C       -0.92866800      -2.35957600       0.75229100
C       -1.08108100       1.24029300      -1.44778900
H        1.53546500      -0.48442700      -0.22504000
H        3.28817600      -0.14861200      -0.33232600
H        2.18064500       0.71149900      -1.38942800
H       -0.85730400       0.19438200      -1.65247800
H        2.88397800       2.21079800       0.52682300
H       -0.28618600      -0.38309800       1.68843900
H       -2.66184900      -1.20718100      -0.09616600
H       -2.97196600      -1.89345600       1.56548600
H       -0.44328600      -3.27441700       0.46286600
H       -0.45796300       1.87457700      -2.07640800
H       -2.13075600       1.43550700      -1.66229200
H       -0.87852200       1.45648300      -0.39987700
