15
Extracted from Q-Chem output
C       2.301319      0.535517      0.398591
O       0.923121      0.664542      0.713316
C      -0.064138     -0.912091      0.088386
O       0.665436     -1.757259     -0.183884
C      -1.424508     -0.332022      0.108549
C      -1.078484      0.479892     -1.093136
O      -2.449146     -1.289857      0.138419
H       2.680172     -0.377002      0.859582
H       2.841422      1.394061      0.798513
H       2.451915      0.475583     -0.682161
H      -1.499436      0.297361      0.995696
H      -1.040005     -0.091363     -2.018515
H       0.416822      1.014437     -0.090658
H      -1.596199      1.431563     -1.174862
H      -2.722199     -1.432677     -0.771596
