16
Extracted from Q-Chem output
C       2.106281     -0.298697     -0.036138
N       0.778808      0.212053      0.223230
C       0.087134     -0.277422      1.332600
C      -1.318009      1.147362     -0.780382
C      -0.152519      0.222824     -0.876842
C      -1.488794     -0.291898     -0.349585
C      -1.188545     -0.583383      1.072128
H       2.098182     -1.336444     -0.399235
H       2.609569      0.326038     -0.775516
H       2.689673     -0.264166      0.884515
H       0.601456     -0.334274      2.282992
H      -1.779414      1.439630     -1.714721
H      -1.303783      1.908631     -0.010514
H       0.248134     -0.047320     -1.845854
H      -2.148803     -0.932749     -0.921490
H      -1.906543     -0.941195      1.794207
