16
Extracted from Q-Chem output
C       1.941417     -0.541472     -0.027463
N       0.884172      0.457409      0.076901
C       0.006913      0.235472      1.197702
C      -1.157217      1.459777     -0.445033
C      -0.199249      0.375589     -0.893894
C      -1.079089     -0.762258     -0.473796
C      -0.963348     -0.743378      0.896485
H       1.564271     -1.570665     -0.110953
H       2.560970     -0.317224     -0.897408
H       2.571913     -0.479128      0.861200
H       0.348438      0.482276      2.196669
H      -1.212628      2.372072     -1.045092
H      -2.065448      1.203669      0.070770
H       0.116688      0.421557     -1.936408
H      -1.736895     -1.346402     -1.098849
H      -1.585361     -1.256692      1.615861
