15
Extracted from Q-Chem output
C       2.217612      0.163841     -1.495055
C       0.854974      0.386933     -0.931464
O       0.657992     -0.482119      0.007252
C      -0.597834     -0.477080      0.713243
O      -0.604104     -1.513713      1.603030
C      -1.839138     -0.150975     -0.005008
C      -1.252551      0.818676      1.009211
H       2.793503     -0.636325     -1.020193
H       2.095196     -0.039166     -2.563183
H       2.759456      1.112136     -1.444243
H      -0.028904     -1.294314      2.340784
H      -2.722480     -0.711264      0.268425
H      -1.732458      0.129651     -1.044981
H      -0.782967      1.705287      0.602543
H      -1.746546      0.916492      1.966807
