15
Extracted from Q-Chem output
C       2.055331      0.065005     -1.486484
C       0.975501      0.240849     -0.463576
O       1.254670     -0.260296      0.681681
C      -0.516771     -0.350142      0.646701
O      -0.629106     -1.519015      1.327740
C      -1.723344     -0.013877     -0.159463
C      -1.270756      0.850838      1.027880
H       2.982136     -0.306036     -1.033182
H       1.695213     -0.659317     -2.224721
H       2.223155      1.000730     -2.023273
H      -0.080735     -1.468217      2.117257
H      -2.579979     -0.661142     -0.007798
H      -1.602109      0.405895     -1.143028
H      -0.871351      1.825776      0.800924
H      -1.840103      0.777005      1.946507
