13
smiles: [C:1](=[C:2]([O:3][H:11])[H:10])([H:7])[H:8].[C:4]([O:5][H:9])[N:6]([H:12])[H:13]
C       -1.87410500       0.14031500       0.30065900
C       -1.25385500      -0.99018300       0.60614300
O       -1.65150500      -2.24440800       0.29116500
C        1.63443900       0.72048000      -0.12064400
O        0.91202900       0.66493100      -1.25011400
N        2.85342000       1.11401600      -0.44671100
H       -1.45428800       1.08506600       0.61278200
H       -2.80420600       0.15683600      -0.25684100
H        0.03108500       0.37817100      -1.00608800
H       -0.32458500      -1.01112600       1.16351400
H       -2.47554500      -2.20417700      -0.20176600
H        3.53829200       1.21635500       0.27765800
H        3.12627700       1.32147800      -1.40088100
