13
Extracted from Q-Chem output
C      -1.676418      0.267891      0.022679
C      -0.741810     -0.557371      0.632543
O      -0.560267     -1.855526      0.296253
C       1.048590      0.422219     -0.306429
O       0.443061      1.250813     -1.055633
N       2.370293      0.411217     -0.412887
H      -2.112543      1.057208      0.622812
H      -2.320113     -0.161583     -0.740287
H      -0.614176      1.031995     -0.770446
H      -0.382197     -0.362471      1.631986
H      -1.022847     -2.029807     -0.527548
H       2.904080     -0.231260      0.140436
H       2.865551      1.020044     -1.049990
