12
Extracted from Q-Chem output
N      -0.854819      1.290947      1.254508
C      -0.072425     -0.306230     -1.966035
C      -0.595983      0.515251     -0.982416
N      -0.271896      0.401993      0.334427
C       0.591729     -0.548187      0.735016
N       1.145575     -1.377330     -0.098135
C       0.812317     -1.238320     -1.401614
H      -0.125525      1.808316      1.727572
H      -1.393960      0.765937      1.930692
H      -1.307671      1.318189     -1.153690
H       0.807763     -0.593302      1.798005
H       1.319601     -1.960597     -2.038246
