12
Extracted from Q-Chem output
N      -1.562604      0.275007      0.883077
C      -0.265204     -0.045067     -0.973889
C       0.053342      1.227417     -1.236237
N       0.413704      0.761780      0.054056
C       1.320271     -0.104030      0.570170
N       1.161208     -1.343454      0.148670
C       0.191543     -1.340590     -0.787653
H      -1.358185      1.044364      1.519304
H      -1.496640     -0.559682      1.469034
H      -0.313614      2.195765     -1.524490
H       1.993898      0.187939      1.359856
H      -0.083017     -2.222784     -1.341815
