13
Extracted from Q-Chem output
C       2.200059      0.290517     -0.206338
O       1.141283     -0.488862      0.356345
C      -0.067012      0.009536      0.277236
C      -1.217881     -0.879922      0.468011
C      -2.317069      0.189877      0.443406
N      -3.414702      0.322899      0.005917
H       2.032977      0.434544     -1.274956
H       2.257400      1.254944      0.300914
H       3.116408     -0.269560     -0.044743
H      -1.624690      1.003192      1.053716
H      -0.180323      0.945621     -0.257077
H      -1.310787     -1.251140      1.489358
H      -1.216822     -1.745835     -0.211230
