14
Extracted from Q-Chem output
C      -1.435372     -0.108352     -0.999516
N      -0.599076      0.025228      0.158169
C      -0.609147      0.379608      1.923679
O      -1.116072     -0.391116      2.668073
C       0.677412     -0.007754      0.287289
O       0.966846      0.176809      1.537262
C       1.750106     -0.192653     -0.723363
H      -2.197419     -0.866505     -0.813754
H      -1.939488      0.834888     -1.220410
H      -0.861131     -0.406140     -1.880636
H      -0.720424      1.470345      1.909338
H       1.346894     -0.402244     -1.711815
H       2.396227     -1.013038     -0.411854
H       2.357475      0.712033     -0.765831
