21
Extracted from Q-Chem output
C      -1.400411      1.249826     -0.390278
C      -1.283087     -0.150315      0.203507
C      -2.328052     -1.082696     -0.402767
C       0.118674     -0.734170      0.023720
C       1.234285     -0.066557      0.790611
C       2.558150     -0.379768      0.209548
C       2.207399      0.948062     -0.436571
H      -1.145603      1.246351     -1.455376
H      -2.419619      1.630495     -0.296353
H      -0.743165      1.959274      0.116290
H      -1.462636     -0.076056      1.281196
H      -3.338781     -0.698207     -0.249960
H      -2.175702     -1.191952     -1.481103
H      -2.278681     -2.079496      0.041750
H       0.130051     -1.744246      0.457115
H       0.329133     -0.878114     -1.051326
H       1.270057      1.269943      0.222512
H       3.416221     -0.348928      0.873890
H       2.618987     -1.202490     -0.503946
H       1.909499      0.893703     -1.478126
H       2.874915      1.766465     -0.186480
