18
smiles: [C-:2]([N+:3]1=[C:5]([C:6]([O:7][H:18])([H:16])[H:17])[C:4]1([H:13])[H:14])([H:11])[H:12].[C:1]([H:8])([H:9])([H:10])[H:15]
C       -2.00943300       0.35863700      -1.96200300
C       -1.01141100      -0.64578100       1.39630700
N       -0.04563100       0.16266600       1.10491200
C        0.97148000       0.95750900       1.77234600
C        0.90787700       0.64755000       0.32352900
C        1.78030900      -0.14636200      -0.57965800
O        2.39807200      -1.26686600       0.05067000
H       -2.95279800       0.38513800      -1.41883400
H       -1.71825500      -0.67674500      -2.13251000
H       -2.12668300       0.86428600      -2.91934600
H       -1.45057100      -0.59808600       2.38060300
H       -1.41724600      -1.28069600       0.62133900
H        0.67533800       1.94060600       2.12692800
H        1.58484600       0.37012300       2.45924200
H       -1.23968100       0.86148500      -1.37868800
H        1.20274100      -0.46475700      -1.45498600
H        2.59874600       0.47760600      -0.93490700
H        1.71146200      -1.87534500       0.33227000
