18
Extracted from Q-Chem output
C      -1.786039      0.591900     -1.215517
C      -1.382788     -0.762777      0.850476
N      -0.119378     -0.408922      0.936141
C       0.438991      0.900954      1.187000
C       0.673694      0.133476     -0.068442
C       1.951543     -0.425096     -0.589728
O       2.930187     -0.708774      0.396897
H      -2.625300      0.970121     -0.634649
H      -2.118100     -0.271894     -1.792392
H      -1.505868      1.378440     -1.922191
H      -2.071336     -0.429701      1.618060
H      -1.628222     -1.645298      0.274448
H      -0.255657      1.739115      1.127173
H       1.170974      0.939054      1.986478
H      -0.464562      0.430760     -0.824375
H       1.732645     -1.318085     -1.188344
H       2.401442      0.311000     -1.257174
H       2.572888     -1.378819      0.983491
