16
Extracted from Q-Chem output
C      -0.770011      1.914176     -0.309777
C      -0.416756      0.479342     -0.133193
C       0.460231     -0.205481     -1.062308
C       1.738197     -0.665029     -0.264165
C       1.421056     -1.230932      0.893610
C      -0.042733     -1.348252      1.350744
N      -0.711566     -0.114829      0.999259
H       0.155879      2.496913     -0.285767
H      -1.434620      2.284293      0.471554
H      -1.231880      2.079617     -1.283892
H       0.680402      0.409974     -1.931779
H       0.017715     -1.147321     -1.402489
H       2.153947     -1.682413      1.554877
H      -0.518771     -2.181408      0.819599
H      -0.173925     -1.520075      2.419667
H      -1.153133      0.422175      1.727023
