16
Extracted from Q-Chem output
C      -0.420721      1.598643      0.179111
C      -0.433698      0.126977     -0.095653
C       0.427937     -0.382509     -1.236429
C       1.786896     -0.447780     -0.586715
C       1.506144     -0.584979      0.688348
C      -0.160067     -1.049614      1.197672
N      -1.434169     -0.636080      0.439110
H       0.500212      2.059161     -0.167672
H      -0.552043      1.807445      1.241810
H      -1.271453      2.033596     -0.357001
H       0.352960      0.314049     -2.077438
H       0.087717     -1.359909     -1.589597
H       2.046649     -0.577967      1.626398
H      -0.073086     -2.125899      1.114263
H      -0.218022     -0.677298      2.214056
H      -2.037347     -0.087543      1.046739
