15
smiles: [C:1]([C:2]([O:3][H:11])=[C:6]=[C:7]([H:14])[H:15])([H:8])([H:9])[H:10].[C:4](=[O:5])([H:12])[H:13]
C       -0.37832100      -1.82068600       0.63377900
C       -0.02154000      -0.91877500      -0.50114500
O       -0.85707800      -1.08916600      -1.57510700
C       -1.11014700       1.84922100       0.70885300
O       -0.48188500       2.86072200       0.59915700
C        0.96649100      -0.06351500      -0.48614800
C        1.95063800       0.78962000      -0.46783100
H       -1.40264300      -1.62292000       0.95638200
H        0.29735200      -1.67048700       1.47281000
H       -0.32430800      -2.86255100       0.31102900
H       -0.59350300      -0.48612700      -2.27446300
H       -1.06522700       1.22860900       1.62436300
H       -1.77171800       1.48044000      -0.09840300
H        1.81297000       1.80943700      -0.11987700
H        2.94896300       0.51358500      -0.79517800
