15
Extracted from Q-Chem output
C      -0.547255     -1.588777      0.706388
C      -0.148404     -0.578037     -0.331024
O      -0.905728     -0.759383     -1.476956
C      -0.711810      1.157556      0.494731
O      -0.006661      2.190847      0.223259
C       1.146408     -0.138810     -0.472161
C       1.960740      0.816033     -0.510045
H      -1.597206     -1.450655      0.971070
H       0.065896     -1.496462      1.600494
H      -0.432553     -2.594014      0.298530
H      -0.608879     -0.141281     -2.150253
H      -0.710884      0.798963      1.533190
H      -1.665583      1.046385     -0.031666
H       1.144750      1.748775     -0.120742
H       2.996036      0.990826     -0.739425
