12
Extracted from Q-Chem output
O       1.929613     -1.984501     -0.430290
C       1.161436     -1.082991     -0.620786
C       0.346880     -0.404457      0.441946
C      -1.137119     -0.143179      0.014203
C      -0.777747      1.321079      0.045500
C       0.475901      1.108912      0.437074
H       0.486426     -0.909891      1.398161
H       1.008699     -0.671810     -1.643850
H      -1.424340     -0.553290     -0.957530
H      -1.863224     -0.469484      0.760126
H      -1.351115      2.214613     -0.167057
H       1.313386      1.755142      0.666522
