17
Extracted from Q-Chem output
C       2.417049      0.220960      0.179259
C       1.027953     -0.397345      0.259410
C      -0.045917      0.592832     -0.167906
N      -1.396229     -0.003943     -0.149425
C      -2.014487     -0.001063      1.024308
C      -1.815762     -0.523509     -1.296119
H       2.654724      0.534700     -0.840084
H       3.179575     -0.493638      0.490851
H       2.500518      1.098320      0.825248
H       0.968956     -1.279754     -0.382209
H       0.821331     -0.731702      1.278222
H       0.139021      0.948671     -1.181085
H      -0.061666      1.460282      0.492514
H      -2.978917     -0.474867      1.108038
H      -1.530782      0.467592      1.863125
H      -1.191501     -0.430962     -2.166935
H      -2.769133     -1.025578     -1.323827
