16
smiles: [C:1](=[O+:2][C:3](=[C:4]([N-:5][O:6][H:13])[C:7]([H:14])([H:15])[H:16])[H:12])([H:8])[H:9].[H:10][H:11]
C        1.99072800      -0.92416700       0.62888100
O        1.28698800       0.00517900       1.16847900
C        0.08549400       0.49906700       1.02879400
C       -0.92142800       0.06149000       0.10601000
N       -2.07840400       0.62327100       0.03465300
O       -2.21453900       1.67657200       0.93490000
C       -0.73697700      -1.08127200      -0.85049400
H        2.98094400      -1.02459300       1.04225700
H        1.60863200      -1.53838200      -0.16909000
H        1.94219100       1.15801200      -1.02616200
H        1.33929600       1.56531900      -0.86844500
H       -0.09684100       1.30790300       1.71343400
H       -3.10559000       1.98387900       0.76227300
H       -0.52049100      -2.01353500      -0.32436100
H        0.07297200      -0.88663900      -1.55667500
H       -1.66070100      -1.20698400      -1.41159200
