12
Extracted from Q-Chem output
O       1.317051      1.554296      1.197656
C       0.544460      0.822314      0.674159
N       0.961969      0.299610     -1.091971
C       0.456991     -0.801337     -0.506857
C      -1.024207     -0.539226     -0.294665
O      -1.442652     -0.538603      1.055164
C      -0.960247      0.671205      0.483503
H       1.969856      0.244963     -1.206108
H       0.684345     -0.498850      0.908932
H       0.886042     -1.801654     -0.579683
H      -1.750751     -0.751888     -1.067510
H      -1.607417      1.536069      0.464165
