11
Extracted from Q-Chem output
C       2.795554     -1.617294      0.864078
C       1.753710     -1.038737      0.496993
C       0.609180     -0.388356      0.119455
C      -0.585291     -0.857353     -0.512657
C      -1.444079      0.190039     -0.566579
N      -0.890549      1.275036      0.039681
N       0.400473      0.932327      0.343878
H      -1.055840      2.217738     -0.276929
H      -0.750266     -1.867017     -0.844376
H      -2.432385      0.263642     -0.992978
H       0.927729      1.475270      1.007705
