15
Extracted from Q-Chem output
C      -1.290168     -1.073040      0.004428
C      -0.928958     -0.172122      1.182611
C       0.398253      0.542047      1.066232
C       0.696101      1.289787     -0.242272
O       1.194128      0.569363      1.966223
C       1.337526      0.412720     -1.216008
C       1.870120     -0.320528     -1.997531
H      -2.258546     -1.543512      0.177779
H      -0.548988     -1.861416     -0.131067
H      -1.354102     -0.519125     -0.933290
H      -1.689322      0.611014      1.291636
H      -0.908795     -0.730688      2.118579
H       1.363909      2.116972      0.001270
H      -0.224960      1.696883     -0.667756
H       2.350793     -0.967719     -2.692338
