10
Extracted from Q-Chem output
N       1.991186     -1.081013      0.573136
C       1.007801     -1.166761     -0.297063
C      -1.609322      2.187513     -0.387837
O      -0.723732      1.242289     -0.331244
C      -1.048511     -0.045421      0.155477
N      -0.203997     -0.954460      0.170907
H       2.925218     -1.289856      0.271440
H       1.868163     -0.811532      1.541803
H      -2.568642      1.755914      0.013727
H      -2.084964     -0.139638      0.473153
