10
Extracted from Q-Chem output
N       1.966968     -1.024531      0.534106
C       1.076483     -0.932046     -0.433108
C      -1.626072      2.139513      0.252930
O      -1.936952      0.840014      0.269745
C      -1.085931     -0.197566      0.134492
N       0.117414     -0.022811     -0.164338
H       2.758323     -1.629708      0.411355
H       1.921108     -0.485632      1.392659
H      -1.719452      2.433425     -0.824442
H      -1.591729     -1.140499      0.315519
