15
smiles: [C:1](=[O:2])([H:9])[H:10].[C:3](=[O:4])([C:5]([C:6]([O:7][H:15])([H:13])[H:14])([H:11])[H:12])[H:8]
C       -2.57175500       0.95171600       0.66901300
O       -2.10590500      -0.05363000       1.11869200
C       -0.44821900      -0.84481700      -1.08633000
O       -0.75703400       0.16181000      -1.66492900
C        0.73939300      -0.97870900      -0.18112200
C        1.54892000       0.28983500      -0.03685000
O        2.62505800       0.00216900       0.83720100
H       -1.05768900      -1.76553700      -1.20031400
H       -2.34043900       1.29561300      -0.35742700
H       -3.25850300       1.59178700       1.25549100
H        0.38295500      -1.32152500       0.79683200
H        1.36617100      -1.79283500      -0.56247800
H        1.90850400       0.61391500      -1.01976900
H        0.91467900       1.09039500       0.35995200
H        3.15861800       0.79090700       0.93958500
