14
Extracted from Q-Chem output
O       1.486801      1.557509      0.146982
C       1.037030     -0.356129     -0.541682
C       0.172719     -1.112983      0.391793
C      -1.260761     -0.655736      0.295032
C      -1.162991      0.884702      0.041938
O      -2.143892      1.560592     -0.041769
H       1.804655      2.157498     -0.540042
H       2.103319     -0.528129     -0.485963
H       0.654719     -0.156267     -1.536011
H       0.570555     -1.040100      1.405728
H       0.282199     -2.170025      0.099048
H      -1.769130     -1.082633     -0.574249
H      -1.864729     -0.878727      1.176372
H       0.452653      1.533264      0.100866
