15
Extracted from Q-Chem output
C       1.925273     -0.151507      0.718664
C       0.739024      0.124026     -0.109446
C      -0.171889     -0.851153     -0.666965
C      -1.398459     -0.232527      0.051553
O      -1.451556     -0.491942      1.447973
C      -1.159227      1.222738     -0.210388
O       0.326555      1.378429     -0.122210
H       2.531382      0.746319      0.832552
H       2.515449     -0.985852      0.343636
H       1.540151     -0.420542      1.713122
H      -0.307303     -0.758026     -1.747108
H       0.070334     -1.876768     -0.400660
H      -2.141048     -1.141092      1.575510
H      -1.463714      1.547822     -1.206807
H      -1.561293      1.884026      0.553050
