8
Extracted from Q-Chem output
O      -1.769153     -0.908898     -0.607794
C      -1.638947     -0.017348      0.174527
C      -0.280165      0.458248      0.629367
C      -0.169094      1.444350      1.483940
C       0.929434     -0.131146      0.158848
C       1.946279     -0.624644     -0.233839
H      -2.495132      0.514786      0.615752
H       2.844879     -1.069799     -0.591959
