19
smiles: [C:1](=[C:2]([H:11])[H:12])([H:8])[H:10].[H:9][H:14].[O:3]=[C:4]([C:5]1([H:15])[C:6]([H:16])([H:17])[C:7]1([H:18])[H:19])[H:13]
C        2.05855700      -0.42961500       1.58856800
C        2.63279100      -0.47430900       0.39880400
O        0.33876900       1.73498700      -1.21220300
C       -0.68870300       1.37694000      -0.70422100
C       -1.02387100      -0.01815600      -0.36391600
C       -2.47296100      -0.43254600      -0.46893200
C       -1.86421500      -0.24970100       0.87073900
H        1.32229000       0.32625700       1.83686700
H        1.24355500      -0.07024100      -2.87760800
H        2.29962100      -1.14813100       2.36367300
H        3.36895400      -1.23029200       0.15051300
H        2.39165100       0.24408200      -0.37639200
H       -1.48287600       2.11600700      -0.44981300
H        1.39285400      -0.61417500      -3.36362100
H       -0.26154900      -0.74529300      -0.60988300
H       -3.18005900       0.31179800      -0.81360900
H       -2.66521400      -1.43552500      -0.82360700
H       -2.15137800       0.62053700       1.44795600
H       -1.62568600      -1.12289700       1.46187800
