14
Extracted from Q-Chem output
N      -2.204127     -0.784034      0.095507
C      -0.949388     -0.074601     -0.061873
C       0.074776     -0.911775      0.205833
C       1.212248     -0.026567      0.130186
N       2.536884     -0.413595      0.382457
C       0.772824      1.247129     -0.138207
N      -0.625072      1.246658     -0.202129
H      -2.780974     -0.903105     -0.731882
H      -2.773753     -0.521926      0.895201
H      -1.370872     -1.641109      0.325825
H       3.222395      0.093747     -0.154047
H       2.652180     -1.406543      0.255188
H       1.317991      2.170869     -0.261452
H      -1.140344      1.927586     -0.730416
