9
Extracted from Q-Chem output
N       1.925249      0.032178      0.189046
C       0.654399     -0.418587      0.265486
N      -0.259516      0.582039     -0.166801
C      -1.468633      0.438718     -0.042433
N      -2.657057      0.451118      0.149806
O       0.335904     -1.520669      0.636065
H       2.119062      0.962335     -0.128132
H       2.668667     -0.580571      0.465335
H      -3.320090      0.022906     -0.475505
