13
Extracted from Q-Chem output
N       2.358660      0.030847      0.592183
C       1.168152      0.046258      0.219133
C       0.041746     -0.861281      0.622114
C      -0.994778     -0.594438     -0.465191
C      -0.629594      0.770657     -1.010950
O       0.666120      0.974070     -0.703531
H       2.895205      0.774409      0.151431
H       0.390886     -1.887993      0.702542
H      -0.327960     -0.546720      1.601620
H      -2.031567     -0.656187     -0.143886
H      -0.863774     -1.284966     -1.303911
H      -1.418972      1.643670      0.315524
H      -1.384772      1.745812     -0.558889
