12
Extracted from Q-Chem output
C      -1.129623      0.551910      0.965013
C      -0.071660      0.060614      0.041537
N      -0.317171     -0.050914     -1.401987
N       1.345407      0.173793      0.354578
C       0.837056     -1.088154     -0.090008
O       0.659293     -1.126425     -1.497977
H      -2.071226      0.038528      0.772639
H      -1.284681      1.625282      0.830396
H      -0.826620      0.380604      1.996626
H       0.066473      0.740487     -1.919848
H       1.914318      0.651972     -0.337385
H       1.040573     -2.017352      0.422958
