12
Extracted from Q-Chem output
C      -1.094561      0.617243      0.868283
C      -0.067263      0.010585     -0.031484
N      -0.409926     -0.149643     -1.381228
N       1.308510      0.112479      0.431537
C       1.093208     -1.162468     -0.143740
O       1.163478     -1.170357     -1.440129
H      -2.110919      0.396788      0.544283
H      -0.945388      1.699772      0.930492
H      -0.956532      0.217293      1.873417
H      -0.743161      0.758308     -1.764486
H       1.874655      0.681232     -0.195471
H       1.050042     -2.070887      0.445070
