12
Extracted from Q-Chem output
C      -1.798925      0.040970      0.088427
C      -0.320120     -0.034718      0.039637
C       0.691288      0.889250      0.335314
C       2.047481      0.197329      0.212850
C       1.619726     -1.012324     -0.251751
O       0.237787     -1.158114     -0.323304
H      -2.115976      1.059922      0.301596
H      -2.190117     -0.616982      0.867535
H      -2.232590     -0.275751     -0.861597
H       0.521773      1.850444      0.799426
H       1.298899      1.058523     -0.667583
H       2.141311     -1.915908     -0.523799
