14
Extracted from Q-Chem output
C       1.737890     -0.781364      0.209964
C       0.816276      0.427486      0.296525
C      -0.502432      0.203341     -0.421816
C      -1.593430     -0.696885      0.131089
O      -2.472445      0.353875      0.104195
C      -1.563712      1.231453     -0.309429
H       1.262725     -1.661538      0.647598
H       2.671172     -0.602017      0.746020
H       1.988933     -1.015085     -0.827659
H       1.303966      1.305195     -0.137339
H      -0.353129     -0.098635     -1.467283
H       0.605589      0.658722      1.343391
H      -1.974197     -1.627965     -0.283607
H      -1.609532      2.257599      0.034030
