14
Extracted from Q-Chem output
C       1.700751     -0.664994      0.209614
C       0.658350      0.433171      0.059929
C      -0.556549      0.087068     -0.779388
C      -1.320318     -0.623937      0.351662
O      -2.081850      0.554514      0.575729
C      -1.307936      1.228813     -0.236656
H       1.238332     -1.616385      0.488378
H       2.430863     -0.411634      0.980649
H       2.246514     -0.822520     -0.727728
H       1.127031      1.387317     -0.188379
H      -0.562630     -0.236040     -1.819463
H      -0.195570     -0.113031      1.042018
H      -1.900869     -1.542450      0.335507
H      -1.268322      2.308344     -0.247443
