15
Extracted from Q-Chem output
C       2.262458     -0.395218     -0.036404
C       0.808475     -0.087074     -0.014072
C      -0.284130     -0.759562     -0.369017
C      -1.478922      0.047933     -0.116707
N      -2.753523     -0.423898     -0.495403
C      -1.218014      1.269726      0.404780
N       0.318331      1.209886      0.468348
H       2.707833     -0.353215      0.962179
H       2.417299     -1.401387     -0.424175
H       2.820971      0.295229     -0.675356
H      -0.279938     -1.756852     -0.790514
H      -3.454588      0.262093     -0.251978
H      -2.988797     -1.303904     -0.057521
H       0.673188      1.984107     -0.089632
H       0.585157      1.396471      1.432753
