11
smiles: [C-:2](=[O+:3][C:4](=[O:5])[H:11])[H:9].[C:1]([H:6])([H:7])([H:8])[H:10]
C       -1.75584400       0.62880700       0.00134000
C        0.60273000      -1.62466500       0.56487400
O        1.44750200      -0.62828300       0.70798300
C        1.92277100       0.11240300      -0.41044200
O        1.59541000      -0.07487400      -1.52446000
H       -1.24658000       0.47806700      -0.94929000
H       -2.78710000       0.92623300      -0.18320400
H       -1.24774500       1.40991500       0.56478900
H        0.40461000      -1.71038600      -0.53017500
H       -1.74259700      -0.29854000       0.57186500
H        2.62680300       0.86616500      -0.04206700
