8
Extracted from Q-Chem output
N      -1.689604     -0.106054      0.066305
C      -0.511110     -0.341533     -0.460339
O       0.406845      0.262812      0.340384
C       1.706575      0.111925     -0.067781
O       2.600539      0.589402      0.542797
H      -1.819999      0.434381      0.914002
H      -2.502038     -0.478302     -0.390467
H       1.773073     -0.482246     -0.989351
