8
Extracted from Q-Chem output
N      -1.419764     -0.224632      0.187459
C      -0.151774     -0.092036     -0.129466
O       0.440785      1.025585      0.125353
C       1.591205      0.019910     -0.177433
O       2.286419     -0.390293      0.695763
H      -1.925068      0.526862      0.639619
H      -1.895062     -1.089967      0.010422
H       1.825589      0.145708     -1.233433
