12
Extracted from Q-Chem output
C      -0.831441     -0.573619      1.380371
C      -1.197947      1.228218     -3.066776
C      -0.764633      0.793127     -1.950690
C      -0.324140      0.351126     -0.819230
C       0.119818     -0.095066      0.316899
C       1.597372     -0.147605      0.598232
H      -0.687364      0.007436      2.294249
H      -0.625713     -1.620865      1.614112
H      -1.870498     -0.482834      1.070156
H       1.891358     -1.174133      0.829358
H       1.830066      0.471070      1.468114
H       2.186736      0.202696     -0.246701
