12
Extracted from Q-Chem output
C       1.426418      0.341965      0.318635
C       0.419169     -0.771812      0.347796
O      -0.775028     -0.491248      1.032107
C      -1.585748      0.184017      0.097665
O      -0.719925      0.922908     -0.733588
C       0.455726      0.157807     -0.812664
H       2.461902      0.080017      0.139972
H       1.251089      1.177481      0.982950
H       0.705259     -1.815016      0.312923
H      -2.160283     -0.539296     -0.500253
H      -2.249687      0.867601      0.625924
H       0.771107     -0.114424     -1.811467
