12
Extracted from Q-Chem output
C       1.532012      0.208958      0.857851
C       0.473578     -0.681353      0.414114
O      -0.782454     -0.553273      1.046997
C      -1.610682      0.134319      0.159554
O      -0.774486      1.012759     -0.578129
C       0.454259      0.383495     -0.693040
H       2.454656     -0.142557      0.364192
H       1.240597      1.164890     -0.346871
H       0.669235     -1.702864      0.093519
H      -2.117269     -0.555959     -0.531732
H      -2.334768      0.727470      0.716079
H       0.722158      0.023550     -1.684701
