14
Extracted from Q-Chem output
O      -0.856966      2.294487     -0.338071
C      -0.450198      1.221279      0.270553
C      -1.266659      0.053613     -0.018764
C      -0.486973     -1.130634     -0.363281
C       0.905440     -0.808133      0.213711
C       1.017922      0.694002     -0.011089
H      -0.476070      1.209002      1.418844
H      -2.344641      0.145424     -0.105520
H      -0.951628     -2.077616     -0.080659
H      -0.415122     -1.140030     -1.464385
H       1.694530     -1.378943     -0.273660
H       0.929059     -1.046414      1.279653
H       1.742437      1.196987      0.623947
H       1.237735      0.929913     -1.054429
