11
Extracted from Q-Chem output
O       2.732279     -1.369888     -0.232686
C       2.012312     -0.470969     -0.277288
C       1.223772      0.578433     -0.335001
C      -0.119124      0.552895      0.299227
N      -1.295283      0.235052     -0.580306
C      -1.476852     -0.778187      0.347314
N      -0.424160     -0.667203      1.076408
H       1.594223      1.447732     -0.859620
H      -0.306425      1.455579      0.884075
H      -2.018825      0.916728     -0.767065
H      -2.281996     -1.505349      0.398071
