15
Extracted from Q-Chem output
C      -1.972543      0.100798      0.232236
C      -0.681612     -0.476853     -0.328004
C       0.587212      0.095467      0.319733
C       1.861630     -0.563462     -0.212198
C       0.651984      1.549226      0.126722
N       0.702527      2.683390     -0.040891
H      -2.054014     -0.081465      1.306533
H      -2.027247      1.179123      0.070815
H      -2.840215     -0.353013     -0.247938
H      -0.659434     -1.560138     -0.180370
H      -0.628963     -0.306907     -1.407238
H       0.527302     -0.066164      1.401374
H       1.830823     -1.635962     -0.015216
H       1.952031     -0.414134     -1.289250
H       2.750519     -0.149906      0.263691
