15
Extracted from Q-Chem output
C      -1.974820      0.152103     -0.138346
C      -0.994147     -0.805714      0.038483
C       1.055053      0.109251      0.578208
C       1.993433     -0.369338     -0.498099
C       0.499868      1.337061      0.546502
N      -0.351532      2.159177      0.412134
H      -2.733367      0.274833      0.628032
H      -1.277481      1.407958      0.119825
H      -2.284594      0.400691     -1.148448
H      -0.955674     -1.386678      0.950833
H      -0.511562     -1.256167     -0.819274
H       1.190612     -0.310794      1.570241
H       1.935320     -1.455596     -0.589977
H       1.739634      0.069630     -1.463439
H       3.031152     -0.115302     -0.271157
