12
Extracted from Q-Chem output
O      -2.391831     -0.736422     -0.039810
C      -1.217110     -0.264573      0.126862
C      -0.493963      1.002323     -0.250711
C       0.786086      0.089130     -0.300448
C      -0.075745     -1.070195      0.211329
C       1.869318      0.499335      0.584040
N       2.715786      0.812830      1.292294
H      -0.802485      1.479905     -1.178761
H      -0.452274      1.728792      0.559508
H       1.178094     -0.035885     -1.310636
H       0.182193     -1.929489      0.812771
H      -1.361013     -1.519070     -0.410982
