14
Extracted from Q-Chem output
C      -1.789790      0.125722      0.040235
N      -0.352579      0.000211      0.006756
C       0.362294     -1.251534     -0.136036
C       1.792730     -0.777951     -0.104464
C       1.939786      0.561793      0.037874
C       0.554469      0.957870      0.098752
O       0.153116      2.203268      0.238188
H      -2.054740      1.177985      0.110425
H      -2.202319     -0.400726      0.903467
H      -2.229035     -0.290292     -0.868504
H       0.112328     -1.931743      0.685390
H       2.593068     -1.505891     -0.195969
H       0.088370     -1.742174     -1.076302
H       0.975023      2.714518      0.280890
