13
Extracted from Q-Chem output
O       2.719473     -1.302063      0.139171
C       1.695855     -0.856546     -0.482264
N       1.056458     -0.042743      0.295821
C      -0.109891      0.729603      0.025882
C      -1.340375      0.483424      0.838019
C      -1.312014      0.095856     -0.612351
H       1.440041     -1.146359     -1.500051
H       2.126660     -0.485524      0.972885
H       0.096073      1.762040     -0.235984
H      -1.285210     -0.315634      1.565305
H      -1.935060      1.336243      1.136255
H      -1.881076      0.686197     -1.318077
H      -1.260971     -0.959961     -0.844048
