14
Extracted from Q-Chem output
O      -0.526939     -1.759611      1.219764
C       0.091730     -1.433971      0.050209
C      -0.866181      0.435580     -0.199743
C       0.083082      1.568949     -0.395602
C       0.869532      0.307164     -0.282562
O       1.744876      0.325725      0.767782
H      -1.482072     -1.862889      1.124512
H      -0.480066     -1.751082     -0.831534
H      -1.504903      0.167524     -1.029815
H      -1.310489      0.372605      0.781959
H       0.079317      2.054512     -1.363900
H       0.192005      2.246625      0.441896
H       1.229875     -0.047024     -1.243949
H       1.900682     -0.613725      0.954449
