17
Extracted from Q-Chem output
C      -1.903562      0.203733      0.403391
C      -0.480812     -0.182108      0.770015
O      -0.336432     -1.596078      0.712580
C       0.791642     -1.951864     -0.069316
C       1.291215     -0.658660     -0.631014
C       0.579404      0.352685     -0.160216
C       0.734365      1.810242     -0.428521
H      -2.063826      1.275918      0.537176
H      -2.113635     -0.058935     -0.635399
H      -2.606976     -0.328466      1.044344
H      -0.276296      0.154859      1.799020
H       1.544471     -2.447761      0.558568
H       2.128861     -0.588250     -1.312880
H       0.487038     -2.665558     -0.843748
H      -0.158644      2.217926     -0.909146
H       0.875018      2.363902      0.504035
H       1.588266      2.006390     -1.076296
