14
Extracted from Q-Chem output
C      -1.963090      0.000870     -0.327942
C      -0.993738     -0.908944      0.432743
C       0.364811     -0.900872     -0.214186
C       2.397693      1.099578     -0.078774
O       0.780136     -1.760110     -0.945294
C       1.213560      0.292082      0.084454
N       1.189284      1.288747      0.834054
H      -1.612682      1.034009     -0.336110
H      -2.943018     -0.015706      0.148847
H      -2.081130     -0.333387     -1.359743
H      -0.896156     -0.562113      1.464510
H      -1.350837     -1.938843      0.436250
H       2.481953      1.786830     -0.913360
H       3.325933      0.819136      0.406562
