11
Extracted from Q-Chem output
N      -1.106327      1.247359     -0.302104
C      -1.401796      0.131393      0.205649
C      -0.591957     -1.081542     -0.106738
N       0.651659     -1.126943     -0.289231
C       1.494340     -0.024314     -0.146879
N       1.916892      0.343126      0.983598
H      -1.758463      1.972607     -0.012530
H      -2.266266     -0.036460      0.857267
H      -1.149259     -2.017161     -0.184230
H       1.808186      0.390360     -1.108737
H       2.579223      1.105116      0.877311
