12
Extracted from Q-Chem output
O       2.209077      0.181125      0.729724
C       2.145188     -0.079809     -0.573532
O       0.921805     -0.410236     -0.892244
C      -0.128922     -0.454380      0.072061
C      -1.495685     -0.455682     -0.503613
C      -0.977074      0.758332      0.224399
H       3.123382      0.410579      0.913365
H       0.100548     -1.063840      0.934469
H      -1.566977     -0.391531     -1.581227
H      -2.247183     -1.071081     -0.028086
H      -0.712205      1.617176     -0.377496
H      -1.360207      0.988907      1.209331
