16
Extracted from Q-Chem output
C      -1.522626      0.691355      0.036259
C      -0.488651     -0.080141      0.815164
C      -0.148485     -1.684573      0.046309
O       0.743607     -1.502943     -0.887763
C       0.883930      0.092272      0.567829
C       1.463328      1.008655     -0.424549
H      -1.496231      1.763751      0.247379
H      -2.521729      0.331158      0.283241
H      -1.380035      0.553099     -1.037577
H      -0.748548     -0.342291      1.836074
H      -1.158976     -2.035124     -0.255868
H       0.155670     -2.219697      0.964880
H       1.572657     -0.379615      1.261834
H       2.473289      0.717666     -0.699470
H       1.485070      2.003505      0.043187
H       0.839337      1.065885     -1.313183
