13
Extracted from Q-Chem output
O       1.355579      0.679603      1.447776
C       0.760725      0.388805      0.261905
N       1.578405      0.079803     -0.875577
C       0.475694     -0.858127     -0.482254
C      -0.783270     -0.188985     -0.945810
C      -1.571825      0.245621      0.217716
N      -0.443113      1.084476     -0.206008
H       2.447699     -0.305842     -0.514094
H       0.691415      0.680024      2.141481
H       0.668980     -1.902524     -0.284156
H      -1.141370     -0.133646     -1.965082
H      -2.531312      0.712658      0.036267
H      -1.504591     -0.315926      1.145527
