10
Extracted from Q-Chem output
O       1.283990     -0.013640      1.701849
C       1.285032     -0.343846      0.551939
C       0.186009      0.009593     -0.415411
C      -1.640926      0.000007     -0.145091
N      -0.712821      1.052410      0.062104
H       2.108031     -0.940672      0.117665
H       0.512471      0.135360     -1.443849
H      -1.869677      0.025021     -1.228247
H      -0.465837     -0.988354     -0.320993
H      -0.535056      1.145602      1.060162
