13
Extracted from Q-Chem output
C      -1.626130      1.804674      0.202417
C      -1.016369      0.866251     -0.802016
C       1.639286     -1.315521      0.053568
O       1.923636     -2.084015      1.180225
C      -0.355867     -0.212941     -0.478752
N       0.199110     -1.252422     -0.172364
H      -2.702490      1.898348      0.042263
H      -1.466493      1.449434      1.220115
H      -1.191938      2.803579      0.121220
H      -1.124297      1.076573     -1.860100
H       2.081566     -1.744792     -0.853377
H       2.068979     -0.326652      0.230364
H       1.468173     -2.924850      1.088268
