13
Extracted from Q-Chem output
C      -1.071765      1.731303      0.078509
C      -0.811921      0.454923     -0.674224
C       1.247136     -1.103708      0.320511
O       2.472231     -1.408086      0.668582
C      -1.152345     -0.763907     -0.166197
N      -1.105351     -1.832575      0.328136
H      -2.045799      2.165331     -0.170228
H      -1.054366      1.566943      1.157418
H      -0.313546      2.479318     -0.160102
H      -0.732037      0.517024     -1.754785
H       0.904489     -1.350240     -0.664873
H       0.710310     -0.529990      1.047332
H       2.918482     -1.911240     -0.020245
