11
Extracted from Q-Chem output
C      -1.570106     -0.435255     -0.804523
N      -0.662618      0.435378     -0.174877
C       0.112211      1.177601      0.382800
O       1.369346      0.830979      0.944175
C       1.861635     -0.405285      0.733241
O       2.882103     -0.769676      1.225365
H      -2.597314     -0.060051     -0.768684
H      -1.543952     -1.438525     -0.367166
H      -1.287499     -0.529664     -1.855224
H       0.005195      2.250575      0.574891
H       1.238126     -1.018361      0.067806
