15
Extracted from Q-Chem output
C      -1.641132      0.552244      0.499457
C      -0.490577     -0.142342     -0.190600
C       0.323375     -1.211547      0.562900
N       1.548888     -0.644274     -0.027511
C       0.854051      0.600875     -0.335915
O       1.201478      1.194437     -1.546004
H      -1.999353      1.394151     -0.096727
H      -2.480601     -0.128630      0.655809
H      -1.337778      0.937394      1.476227
H       1.311466      0.481743     -2.182380
H      -0.793574     -0.520088     -1.170407
H       0.144382     -2.259935      0.317912
H       0.249668     -1.082325      1.649218
H       2.365478     -0.580234      0.564202
H       0.970424      1.387670      0.419989
