15
Extracted from Q-Chem output
C      -1.646824      0.500174      0.568037
C      -0.759302     -0.194841     -0.442296
C       0.248606     -1.132749      0.225288
N       1.339291     -0.226119      0.547669
C       1.479161      0.762298     -0.330192
O       1.597512      0.665025     -1.649454
H      -2.317586      1.209300      0.077987
H      -2.278746     -0.192667      1.149078
H      -1.064001      1.074083      1.298867
H       0.797157      0.181009     -1.917217
H      -1.377401     -0.722895     -1.180196
H       0.589357     -1.916666     -0.457031
H      -0.066614     -1.633550      1.157045
H       1.586739     -0.034835      1.504315
H       1.989835      1.645817      0.050792
