16
Extracted from Q-Chem output
C      -1.400197      1.076989      0.182971
C      -1.200339     -0.411214      0.436155
C       0.183554     -0.828732      0.890039
C       0.895129     -0.329018     -1.709195
C       1.739805      0.316923     -0.683040
O       1.205039     -0.911060     -0.132263
H      -0.866167      1.388909     -0.714372
H      -1.059449      1.676543      1.032154
H      -2.458217      1.296450      0.030872
H      -1.455283     -0.980513     -0.459600
H      -1.877813     -0.739825      1.231938
H       0.155989     -1.844739      1.284649
H       0.569470     -0.164624      1.669529
H       1.545203     -1.041445     -2.237650
H       2.829750      0.282590     -0.677454
H       1.348087      1.200203     -0.178067
