10
Extracted from Q-Chem output
C       0.929278      0.842306     -0.143650
C       0.717402     -0.392247      0.665087
N      -0.399475     -1.165017      0.082719
C      -1.341540     -0.555310     -0.507203
C      -1.334556      0.913153     -0.277427
N      -0.175565      1.370026     -0.530411
H       1.876193      1.166415     -0.555025
H       1.607511     -1.021106      0.664105
H      -2.164379     -1.092284     -0.964239
H       0.453458     -0.184816      1.709575
