18
Extracted from Q-Chem output
C       1.795980      0.279504     -1.326673
C       1.008869     -0.525503     -0.332441
C       1.330831     -0.541941      1.114293
N       0.185815      0.194778      0.620369
C      -1.129968     -0.351346      0.905032
C      -2.135002      0.293599     -0.031725
O      -2.119306      1.696121      0.092921
H       1.165855      0.581852     -2.165894
H       2.633057     -0.300176     -1.721239
H       2.191918      1.181225     -0.857891
H       0.575914     -1.446772     -0.720162
H       2.151711      0.056979      1.493034
H       1.139055     -1.458170      1.665885
H      -1.160576     -1.447283      0.797431
H      -1.382883     -0.104448      1.939676
H      -1.914574     -0.008746     -1.066355
H      -3.145458     -0.045709      0.205073
H      -1.191240      1.946037      0.164047
