18
Extracted from Q-Chem output
C       1.316872     -0.146737     -1.687402
C       1.311134     -0.766248     -0.328007
C       1.003389     -0.033222      1.545361
N       0.285426     -0.610222      0.529166
C      -1.143347     -0.652905      0.310760
C      -1.763753      0.722740      0.096870
O      -1.694567      1.526825      1.248415
H       0.365018     -0.316630     -2.201661
H       2.117263     -0.548786     -2.307463
H       1.449856      0.940022     -1.627067
H       2.102377     -1.437978     -0.029833
H       1.546329      0.884400      1.360188
H       0.981045     -0.453896      2.548227
H      -1.336141     -1.298251     -0.549827
H      -1.602179     -1.113776      1.191217
H      -1.281120      1.214154     -0.759743
H      -2.822926      0.604125     -0.143474
H      -0.792253      1.470421      1.586125
