9
Extracted from Q-Chem output
O      -1.718732      0.619639     -1.078522
C      -1.542918      0.041180     -0.049315
N       0.979283      0.720549      0.687908
C       1.167109     -0.203602     -0.138447
N       0.331941     -1.371660     -0.097298
N      -0.877898     -1.231133      0.013213
H       1.680171      1.451893      0.612645
H       1.977068     -0.298314     -0.861946
H      -2.012768      0.300050      0.912255
