12
Extracted from Q-Chem output
O      -2.031097      0.687023     -0.111700
C      -1.332452     -0.540814     -0.024402
C       0.130382     -0.263074      0.008996
N       0.539521      0.995331     -0.042058
O       1.874925      1.052086      0.001209
C       2.232634     -0.283864      0.082014
C       1.205946     -1.174460      0.092434
H      -2.973130      0.518242     -0.131083
H      -1.589756     -1.097594      0.883059
H      -1.533013     -1.191290     -0.882393
H       3.308148     -0.383618      0.124373
H       0.042904      1.868742     -0.099972
