15
Extracted from Q-Chem output
O      -0.721344      0.636712      1.082268
C      -1.601914      0.276934      0.017662
C      -0.732436     -0.323981     -1.059620
C       0.433706      0.498214     -1.494046
C       0.608994     -0.537852     -0.414618
C       0.464623     -0.032719      0.970828
C       1.301469     -0.161722      1.990731
H       1.049226      0.222590      2.969010
H      -2.129191      1.181185     -0.292630
H      -2.332609     -0.453158      0.380333
H      -1.161752     -1.055763     -1.729609
H       0.869652      0.272288     -2.457858
H       0.470086      1.542303     -1.206110
H       1.217000     -1.411726     -0.596477
H       2.257405     -0.643765      1.847195
