15
Extracted from Q-Chem output
O      -0.726321     -0.410477      1.367988
C      -1.451076      0.176090      0.271895
C      -0.711460     -0.322773     -0.965051
C       0.467407      0.447258     -1.476742
C       0.680152     -0.711631     -0.540598
C       0.802361     -0.361308      0.892781
C       1.375843      0.240680      1.888637
H      -0.214724      0.203490      2.144999
H      -1.428212      1.265075      0.363255
H      -2.480259     -0.176411      0.310339
H      -1.257574     -0.952163     -1.654492
H       0.731399      0.308156     -2.517232
H       0.649645      1.439546     -1.084843
H       1.129209     -1.625643     -0.903916
H       2.431986      0.482854      1.900131
