15
smiles: [C-:1]([C@@:2]1([C:3]([O:4][H:12])([H:10])[H:11])[C+:5]([H:13])[N:6]1[H:15])([H:8])[H:9].[H:7][H:14]
C       -1.05660100      -1.11448300       0.44005100
C        0.04211300      -0.28679600       0.27840400
C        1.14072700      -0.51546900      -0.73022300
O        2.10528000       0.49753700      -0.75587900
C       -0.36702900       1.09322900       0.75577100
N        0.44064200       0.39258000       1.57458200
H       -1.58887700       1.24701200      -2.32321000
H       -1.34138600      -1.83541900      -0.31669800
H       -1.69393500      -1.00640000       1.30542100
H        1.59505300      -1.49127500      -0.51314000
H        0.69268800      -0.56828800      -1.72480900
H        2.26139700       0.77396500       0.15208600
H       -1.35587200       1.44776800       1.05389000
H       -1.08099500       1.42150700      -1.80748400
H        0.07518800       0.01256200       2.45474300
