13
smiles: [C:1]([H:8])[H:10].[C:2]([O:3][C:4](=[O:5])[H:12])([C:6]#[C:7][H:13])([H:9])[H:11]
C       -0.02628400      -2.19222200       0.18364500
C        0.39068700       0.28640000       0.78983000
O       -0.23767700      -0.50782900      -0.22433100
C        0.17157600      -0.29099200      -1.47945100
O        1.02047300       0.47697400      -1.81648600
C       -0.24562700       1.59173700       0.93287200
C       -0.76537100       2.66076200       1.06166400
H       -0.99735300      -2.51299200      -0.24767300
H        0.28671100      -0.28772500       1.70918400
H        0.68868600      -2.47631900      -0.61627900
H        1.44930000       0.41085200       0.55793100
H       -0.39694500      -0.94221800      -2.15621200
H       -1.22545000       3.61505400       1.16686800
