13
Extracted from Q-Chem output
C      -1.947277     -1.819846     -0.492830
C       0.054327     -0.060316      0.789913
O       0.861404     -0.637068     -0.248638
C       2.146608     -0.260625     -0.274088
O       2.669264      0.485253      0.495646
C      -0.465851      1.247056      0.410414
C      -0.912257      2.311603      0.098110
H      -2.324914     -0.899061     -0.982036
H      -0.766757     -0.774158      0.947241
H      -1.264630     -2.237620     -1.257972
H       0.632352      0.010862      1.712090
H       2.647177     -0.756191     -1.115991
H      -1.299040      3.264638     -0.176959
