14
Extracted from Q-Chem output
O       1.091381     -1.279136      1.156982
C       0.800874     -0.914333     -0.094737
C      -0.705124     -0.913851     -0.488735
C      -1.250299      0.410794      0.047208
C      -0.071315      1.277819      0.221097
C       1.136464      0.594964      0.012967
H       1.572624      0.609749      1.079333
H       1.394458     -1.417859     -0.881294
H      -0.812646     -0.958572     -1.575405
H      -1.207481     -1.780089     -0.060133
H      -1.995932      0.887055     -0.601785
H      -1.745435      0.318201      1.022592
H      -0.137354      2.247604      0.705897
H       1.963305      0.940223     -0.603298
