11
Extracted from Q-Chem output
O       2.384039     -0.559702      0.003776
C       1.794247      0.495891      0.000983
N       0.449115      0.611018     -0.002867
C      -0.396901     -0.568700     -0.004540
C      -1.806221     -0.192289      0.000171
C      -2.958933      0.127364      0.003621
H       2.308419      1.472863      0.001277
H       0.020198      1.518855     -0.005718
H      -0.177789     -1.181374     -0.883237
H      -0.172789     -1.186574      0.869118
H      -3.987299      0.403120      0.007012
