17
Extracted from Q-Chem output
C      -2.109274     -0.398672      0.654715
C      -1.454398      0.390849     -0.440607
O      -1.255375      1.696403     -0.261663
C       0.350204     -0.402186     -0.471333
C       1.663389      0.379707     -0.700534
C       2.011283     -0.121456      0.704633
O       0.758493     -0.825072      0.814042
H      -3.140882     -0.041072      0.704921
H      -2.114861     -1.471102      0.454291
H      -1.625368     -0.200834      1.608958
H      -1.741791      0.064840     -1.453888
H      -0.253459      0.825318     -0.392675
H       0.117819     -1.211257     -1.162736
H       2.278397      0.003438     -1.514092
H       1.554094      1.461870     -0.797241
H       2.106846      0.647987      1.472781
H       2.856690     -0.809772      0.762937
