19
Extracted from Q-Chem output
C       2.600453     -0.227307      0.145532
C       1.381770      0.209481     -0.654762
C       0.159951      0.476543      0.198447
C      -1.068096      0.972214     -0.563623
C      -2.207280      0.159470      0.054497
C      -1.529692     -1.084926      0.570757
O      -0.265437     -0.784211      0.812436
H       2.895265      0.541806      0.863486
H       2.392004     -1.141848      0.701947
H       3.451807     -0.416364     -0.509892
H       1.603469      1.121433     -1.218505
H       1.114509     -0.554381     -1.393182
H       0.412162      1.138917      1.032153
H      -1.192183      2.050554     -0.465901
H      -0.975160      0.731988     -1.625736
H      -3.032611     -0.051631     -0.621815
H      -2.613789      0.663966      0.936907
H      -1.690481     -2.126142     -0.142451
H      -1.467653     -1.877367     -1.006547
