13
Extracted from Q-Chem output
C      -1.292320      1.153925      0.228111
C      -0.547465     -1.225576     -0.771007
C      -0.423442      0.280881     -0.645689
N       1.060068      0.237818     -0.400851
C       1.165739     -0.490150      0.809670
C       0.864255     -1.276352     -0.459266
H      -0.972861      2.195214      0.158100
H      -2.325863      1.082960     -0.112126
H      -1.272230      0.856968      1.276615
H      -0.553155      0.575574     -1.698108
H       0.409469     -0.402278      1.580910
H       2.176318     -0.641820      1.170108
H       1.616357     -1.966930     -0.820051
