12
smiles: [N:1]([C:2](=[C:3]([H:10])[H:11])[C:5]#[N:6])([H:7])[H:8].[O:4]([H:9])[H:12]
N        0.70391000       0.31526600       0.81216900
C        0.92223600      -0.23865000      -0.44094100
C        0.01802600      -0.84332900      -1.21239700
O       -2.28664900       0.57920900       1.18909900
C        2.29713000      -0.17996300      -0.87844800
N        3.39132600      -0.10759200      -1.21743900
H        1.32331900       1.06268200       1.07513900
H       -0.25949600       0.49845700       1.03713000
H       -2.90141600       1.16367800       0.74400300
H       -1.02160300      -0.90132800      -0.91626300
H        0.31416700      -1.30078600      -2.14355700
H       -2.82195500       0.04912100       1.78076400
