17
Extracted from Q-Chem output
O       2.224824      1.296927      0.271225
C       1.263747     -0.695219     -0.053703
C      -0.052262     -1.026003      0.432457
C      -0.172925      0.494018      0.774389
C      -1.217920      0.985932     -0.226726
O      -1.315337     -0.004899     -1.235446
C      -1.139419     -1.250687     -0.609623
H       2.557862      1.869814     -0.425430
H       1.402187     -0.470306     -1.101076
H       2.150850     -0.909746      0.519550
H      -0.083272     -1.680222      1.298806
H      -0.392687      0.632721      1.829927
H       0.892738      1.099462      0.570224
H      -0.942131      1.918868     -0.718318
H      -2.187636      1.120650      0.271771
H      -0.878966     -1.982045     -1.376660
H      -2.058581     -1.581497     -0.106754
