11
smiles: [H:9][H:10].[N:1]#[C:2][C:3](=[O+:4][C:5](=[C:6]=[N-:7])[H:11])[H:8]
N        2.43346800       0.71877300       0.42561900
C        1.66592000      -0.06659100       0.07404600
C        0.80609900      -1.06964000      -0.40495800
O       -0.45947200      -1.13731900      -0.13743100
C       -1.27209800      -0.41286400       0.56437500
C       -0.89766500       0.74360700       1.26960800
N       -0.67017900       1.69938600       1.87314700
H        1.15984400      -1.86278700      -1.04162600
H       -0.29964500       0.87307100      -2.09770200
H       -0.91917200       1.14677900      -1.78842300
H       -2.28660500      -0.77416200       0.56708600
