14
Extracted from Q-Chem output
C       1.654783     -0.916329     -0.529178
O       0.582402      0.014730     -0.487388
C      -1.003612     -0.681682     -0.546469
C       0.165418      0.466609      0.839279
C      -1.314868      0.345960      0.524094
O      -1.912374      1.586045      0.160243
H       1.792502     -1.196678     -1.570942
H       1.392086     -1.798017      0.058566
H       2.557728     -0.434796     -0.148805
H      -1.323632     -0.322951     -1.536290
H       0.544153      1.470927      1.027614
H       0.514775     -0.243980      1.588730
H      -1.918835     -0.036032      1.346988
H      -1.687594      1.761735     -0.756375
