13
Extracted from Q-Chem output
C      -1.756659     -0.358828      0.282813
N      -0.425195      0.225876      0.373571
C       0.013804      1.530141     -0.301929
C       0.475216      0.185520     -0.792315
C       1.822524     -0.280540     -0.548704
C       2.934538     -0.676699     -0.346155
H      -1.727845     -1.429932      0.491413
H      -2.140756     -0.190996     -0.721887
H      -2.412516      0.140071      0.996214
H      -0.854986      1.818995     -0.907051
H       0.033933      0.071735      1.260401
H       0.000431     -0.320899     -1.632339
H       3.930610     -1.007029     -0.168531
