10
Extracted from Q-Chem output
O       2.244309     -0.514893     -0.895568
C       1.546925     -0.740304      0.051917
N       0.304483     -1.370433     -0.036072
C      -0.804870     -0.792213     -0.157015
C      -1.010794      0.685925     -0.174998
N      -0.122805      1.444946      0.297918
H       1.869757     -0.596222      1.096983
H      -1.699672     -1.410061     -0.246389
H      -1.961840      1.033609     -0.590235
H      -0.383029      2.426005      0.235893
