10
Extracted from Q-Chem output
O       2.383952      0.282434     -0.186163
C       1.181274      0.139929     -0.117733
N       0.459495     -1.034477     -0.057625
C      -0.903856     -0.781896      0.011675
C      -1.062356      0.549059     -0.002618
N       0.203799      1.113341     -0.081153
H       0.906319     -1.931244     -0.068391
H      -1.636705     -1.567111      0.068008
H      -1.959888      1.140526      0.035132
H       0.427964      2.089440     -0.111609
