10
Extracted from Q-Chem output
O      -1.745842      0.638639     -0.359664
C      -0.952161     -0.516722     -0.318988
C       0.491122     -0.241471     -0.119262
C       1.701277     -0.981932     -0.015469
C       1.843426     -0.153753      1.194579
C       1.296654      0.803328      0.289029
H      -1.802873      1.014332      0.521271
H      -1.067068     -1.026412     -1.278206
H      -1.275117     -1.224148      0.456351
H       1.534231      1.801669     -0.045923
