21
smiles: [C:1]([H:8])([H:9])([H:10])[H:19].[C:4]([C:5]([H:13])([H:14])[H:15])([C:6]([H:16])([H:17])[H:18])=[C:7]([H:20])[H:21].[O:2]=[C:3]([H:11])[H:12]
C        2.02343200      -2.32615900      -0.21915400
O        1.47052200       1.06711700      -1.40110400
C        1.63408300       1.31494600      -0.24272000
C       -1.31189900       0.48241800       0.42127000
C       -1.80529300       1.78825300      -0.13117000
C       -1.37902700      -0.68694200      -0.51760900
C       -0.84750500       0.36953800       1.65939000
H        3.08675700      -2.49548900      -0.05634000
H        1.88950300      -1.55434300      -0.97555700
H        1.55673500      -3.24986900      -0.55791000
H        1.32252300       2.28112600       0.19881800
H        2.10444600       0.59146700       0.45073100
H       -1.71595200       2.59396000       0.59715200
H       -2.85383400       1.70942300      -0.43270900
H       -1.23979900       2.06793900      -1.02481500
H       -0.99715100      -1.59802900      -0.05747800
H       -0.79810400      -0.48941000      -1.42314500
H       -2.40972300      -0.86764000      -0.83647900
H        1.56054700      -2.00431300       0.71245900
H       -0.49299900      -0.57839400       2.04784100
H       -0.80504200       1.22251900       2.32709300
