21
Extracted from Q-Chem output
C       2.585707     -1.235405     -0.576345
O       1.216629     -1.109052     -0.310490
C       0.814362      0.226910     -0.142914
C      -0.682599      0.301431      0.150708
C      -1.054075      1.776743      0.307065
C      -1.468754     -0.309950     -1.010269
C      -0.993590     -0.451719      1.445290
H       3.194032     -0.844478      0.250447
H       2.868477     -0.703406     -1.494789
H       2.800799     -2.295871     -0.702958
H       1.042428      0.803221     -1.054007
H       1.376915      0.686721      0.685551
H      -0.505517      2.241472      1.130592
H      -2.120610      1.882922      0.517774
H      -0.838506      2.340949     -0.604134
H      -1.207013     -1.359059     -1.150920
H      -1.262331      0.217921     -1.945263
H      -2.543127     -0.246867     -0.820758
H      -0.707454     -1.500829      1.363874
H      -2.061889     -0.403633      1.670049
H      -0.453882     -0.018020      2.291497
