21
Extracted from Q-Chem output
C       1.876772     -1.777774      0.412742
O       1.568168     -0.231261     -1.151626
C       0.818440      0.791300     -0.842007
C      -0.580892      0.417263      0.005851
C      -1.134120      1.774730      0.422870
C      -1.500883     -0.319260     -0.958341
C      -0.185732     -0.411788      1.131080
H       1.649678     -2.370232      1.301148
H       2.808813     -1.237285      0.480115
H       1.764206     -2.330692     -0.506805
H       0.340691      1.262024     -1.720505
H       1.314800      1.577313     -0.234268
H      -0.484708      2.268061      1.148399
H      -2.126890      1.676504      0.867708
H      -1.217817      2.426128     -0.452173
H      -0.995905     -1.195204     -1.370464
H      -1.779465      0.325771     -1.794377
H      -2.418582     -0.647013     -0.463139
H       0.866273     -0.960296      0.669895
H      -0.753317     -1.313882      1.345054
H       0.170444      0.096428      2.024891
