18
smiles: [C:1]([C:5](=[O:6])[C:7]([H:16])([H:17])[H:18])([H:8])([H:9])[H:10].[C:2](=[N:3][C:4]([H:13])([H:14])[H:15])([H:11])[H:12]
C       -0.30633500       1.18493800      -1.90932100
C       -1.09832700      -1.21179400       1.30784400
N       -0.44551300      -0.13847300       1.33096700
C       -0.26843300       0.51899900       2.60499000
C        0.14228200      -0.25223100      -1.79299400
O       -0.60942300      -1.17016200      -2.00460100
C        1.58223400      -0.47912400      -1.39900500
H       -1.30697500       1.23022100      -2.33312900
H        0.38853800       1.75987100      -2.52520100
H       -0.31134500       1.64519500      -0.91787600
H       -1.24490900      -1.72719700       0.36024700
H       -1.53675900      -1.66796900       2.20575400
H        0.79973400       0.62790100       2.80221800
H       -0.68652200       1.52569100       2.54475000
H       -0.73689300      -0.01424100       3.44354400
H        1.75153500      -1.53323200      -1.19141000
H        1.84685000       0.12426200      -0.52810700
H        2.23476800      -0.16396700      -2.21747400
