13
Extracted from Q-Chem output
C       2.895204     -0.863653      0.801135
C       1.768045     -0.619663      0.467620
C       0.435324     -0.306175      0.105776
C      -0.472489      0.640889      0.862059
C      -1.695871      0.683335     -0.066665
O      -1.523657     -0.379092     -1.028860
C      -0.259400     -0.825888     -0.906469
H       3.895217     -1.087097      1.087547
H      -0.026425      1.627004      0.995220
H      -2.643381      0.517829      0.443756
H      -1.751384      1.621161     -0.623631
H       0.045643     -1.565290     -1.632931
H      -0.710125      0.246676      1.853360
