13
Extracted from Q-Chem output
C       2.911192     -0.509370      0.699941
C       1.730574     -0.425525      0.529245
C       0.308229     -0.310701      0.344914
C      -0.556449      0.720252      0.930757
C      -1.615599      0.924375     -0.087976
O      -1.650144     -0.385592     -0.753794
C      -0.411979     -0.872381     -0.752787
H       3.963134     -0.583199      0.845374
H      -0.220321      1.434301      1.661502
H      -2.622942      1.127822      0.273281
H      -1.361558      1.669688     -0.875995
H      -0.240339     -1.817821     -1.245431
H      -0.269230     -1.013401      1.048370
