11
Extracted from Q-Chem output
O      -1.103278     -0.420811     -0.386709
C      -1.119559      0.258492      0.824926
N      -0.188590      1.183134      0.996586
C       0.890466      1.494408      0.298273
C      -0.300184     -1.447399     -0.456458
C       0.425127     -2.389291     -0.578844
H      -2.050567      0.293342      1.361500
H      -0.327804      1.717222      1.844446
H       1.117697      0.942430     -0.597297
H       1.537871      2.258262      0.690557
H       1.065023     -3.230898     -0.683144
