17
smiles: [C:1]([C:2]1([H:11])[C:3]([H:12])=[C:4]1[H:14])([H:8])([H:9])[H:10].[C:5](=[C:6]=[C:7]([H:13])[H:17])([H:15])[H:16]
C       -1.45188600       0.12637700       1.29270400
C       -1.86771800      -0.68890200       0.08748500
C       -1.78461800      -0.14283600      -1.30661200
C       -0.90438900      -1.03361500      -1.00860700
C        2.46654200      -0.59288600       0.73141700
C        2.17265000       0.41282300      -0.03697500
C        1.87718800       1.41844300      -0.80488100
H       -2.29466000       0.69728000       1.69148100
H       -1.08189900      -0.51723700       2.09530800
H       -0.65954500       0.83096800       1.03126900
H       -2.66350200      -1.40458000       0.30393100
H       -2.19811600       0.54702000      -2.02168400
H        1.00971400       1.38810900      -1.45348400
H       -0.05285500      -1.62580400      -1.29565700
H        3.11488100      -1.38931500       0.38598800
H        2.07005800      -0.65913200       1.73767900
H        2.48808500       2.31332300      -0.81323700
