17
Extracted from Q-Chem output
C      -1.229201      0.278441      1.394918
C      -1.357347     -0.495293      0.101160
C      -0.784145     -0.022047     -1.198918
C      -0.189889     -1.088355     -0.624442
C       1.745527     -0.755237      0.248316
C       1.891034      0.536491     -0.092818
C       1.374482      1.561053     -0.630455
H      -2.064129      0.974662      1.504834
H      -1.249685     -0.397427      2.254155
H      -0.307740      0.858157      1.435809
H      -2.289404     -1.064654      0.055599
H      -1.162733      0.204626     -2.183135
H       0.287664      1.161136     -0.992605
H       0.067423     -2.083374     -0.948166
H       2.287923     -1.511701     -0.308042
H       1.514074     -1.008121      1.278158
H       1.647629      2.587952     -0.797478
