19
Extracted from Q-Chem output
C      -1.616592      0.945361     -0.204976
C      -0.463503     -0.009044      0.066658
C      -0.220765     -1.335214     -0.653009
O       1.046960     -1.790433     -0.063469
C       1.480074     -0.899253      0.765940
C       0.880946      0.912453     -1.082602
C       0.488161      0.033099      1.240174
H      -2.476575      0.403320     -0.597218
H      -1.356240      1.731464     -0.918990
H      -1.941177      1.410803      0.724424
H      -1.429160     -0.735875      1.154119
H      -0.943800     -2.119451     -0.460009
H      -0.040651     -1.238372     -1.726324
H       2.439218     -1.134548      1.217038
H       1.882255      0.536346     -1.301983
H       0.961390      1.904997     -0.638042
H       0.324975      0.968756     -2.017857
H       0.863819      1.015393      1.514936
H       0.004402     -0.444715      2.138530
