16
smiles: [C:1]([C:2][C:5]([O:6][H:16])([H:14])[H:15])([H:7])([H:8])[H:9].[C:3]([O:4][H:13])([H:10])([H:11])[H:12]
C       -1.16172800      -1.16999800      -0.71068500
C       -0.12283700      -0.13466400      -0.59352600
C       -0.85348600       1.67560400       1.01757900
O       -0.03498000       0.53259600       0.89085200
C        1.19646800      -0.71939000      -0.46566100
O        2.25571200       0.18790800      -0.61620700
H       -0.89284500      -2.21174500      -0.47900000
H       -2.09236200      -0.88517200      -0.21860500
H       -1.39248500      -1.11346100      -1.78743400
H       -0.75718000       2.35178500       0.16047700
H       -1.88460500       1.32650000       1.06153600
H       -0.64309400       2.23713700       1.93500000
H        0.87970500       0.81245500       0.84653800
H        1.10233600      -1.07670600       0.58799700
H        1.34084100      -1.63009200      -1.07431500
H        3.08231400      -0.27720200      -0.47622900
