15
Extracted from Q-Chem output
C       2.222723      0.006125     -0.224325
C       0.737833     -0.065863     -0.152876
C      -0.053707     -1.120843      0.037422
C      -1.520518     -0.792151      0.049387
C      -1.563508      0.721986     -0.174735
O       0.292262      2.270315     -0.480337
C      -0.106985      1.147522     -0.297540
H       2.538624      0.409211     -1.188604
H       2.679589     -0.973738     -0.086274
H       2.606251      0.686798      0.538200
H       0.302929     -2.136282      0.174403
H      -2.048659     -1.346123     -0.731053
H      -1.975686     -1.088986      0.997915
H      -2.024770      1.266087      0.650450
H      -2.095260      1.008921     -1.082930
