16
Extracted from Q-Chem output
C       2.305400      0.074432     -0.355042
C       0.418203      0.173387      0.894264
C      -0.486426      1.022975      0.022878
C      -1.548333     -0.074316      0.293801
O      -2.404927     -0.444561     -0.759109
C      -0.389677     -1.058278      0.522519
H       2.415451      1.075132     -0.764529
H       1.833894     -0.602691     -1.056830
H       3.255877     -0.323787     -0.000056
H       1.732696      0.205541      0.714651
H      -0.268660      0.981074     -1.049201
H      -0.662681      2.056267      0.325472
H      -2.113840      0.116027      1.209157
H      -3.130739      0.180768     -0.802122
H      -0.485466     -1.848068      1.267227
H      -0.159303     -1.497182     -0.452574
