12
Extracted from Q-Chem output
N      -1.927541     -0.563367      0.758660
C      -0.670821     -0.241297      0.471877
N       0.337294     -0.534257      1.343435
C       1.488693     -0.109697      0.835901
O       1.899325      0.077503     -1.552426
C       1.165564      0.594883     -0.488375
N      -0.272390      0.354186     -0.640765
H      -2.081728     -1.036673      1.631313
H      -2.683202     -0.457130      0.109363
H       2.526591     -0.542628     -1.163772
H       1.329978      1.675939     -0.399661
H      -0.865617      0.730400     -1.357688
