17
Extracted from Q-Chem output
C       1.728566     -0.565984     -0.386835
C       0.810689      0.257745      0.508053
C       0.048176      1.387039     -0.200374
C      -1.353538      0.845328     -0.020700
O      -1.651150     -0.275477     -0.801169
C      -1.117640     -1.309848      0.030289
C      -0.369757     -0.540783      1.115182
H       2.089903     -1.459368      0.127835
H       2.600123      0.027323     -0.669898
H       1.230885     -0.879456     -1.306598
H       1.415596      0.657830      1.324084
H       0.156092      2.341616      0.318486
H       0.286122      1.542856     -1.256112
H      -2.183268      1.558478     -0.019335
H      -0.461837     -1.988147     -0.523551
H      -1.954471     -1.892592      0.426801
H      -1.321989      0.445277      1.175342
