10
Extracted from Q-Chem output
O      -0.145466      1.873735      1.117585
C      -0.321475      0.893069      0.367145
C      -1.681565      0.873811      0.568428
C       0.599419     -1.394920     -0.172540
O       0.240747     -0.731276     -1.362852
C       0.701244      0.064908     -0.288639
H      -0.224579     -1.821393      0.390891
H      -2.257297      1.545561     -0.069647
H       1.515491     -1.975548     -0.213647
H       1.672578      0.535484     -0.406769
