10
Extracted from Q-Chem output
O      -0.142131      2.346335      0.318062
C      -0.153887      1.141346      0.261380
C      -1.227252      0.254030      0.661809
C       0.307640     -1.067398     -0.131504
O       0.494629     -0.532227     -1.366512
C       0.953436      0.221040     -0.207034
H      -0.771423     -0.985052      0.447390
H      -2.081443      0.187810     -0.018662
H       0.673323     -2.053473      0.137380
H       2.017124      0.410400     -0.159871
