13
Extracted from Q-Chem output
C      -0.544455      1.511791     -0.282007
C       0.045820      0.366092      0.520359
C      -0.460196     -1.028647      0.130322
C       1.517670      0.088271      0.261865
C       1.328798     -1.034564     -0.458630
H      -0.036235      2.444099     -0.034818
H      -0.417132      1.340398     -1.354083
H      -1.611378      1.630704     -0.076985
H      -0.123677      0.542744      1.587536
H      -1.381554     -1.160951     -0.452710
H      -0.397980     -1.779394      0.909387
H       0.261915     -1.101490     -1.028002
H       1.866656     -1.938211     -0.717129
