16
Extracted from Q-Chem output
C      -0.985079     -1.150595     -1.003736
C      -0.991575     -0.360884      0.283289
C       0.294739     -0.197121      1.043775
C       1.539329     -0.171042      0.448996
C      -0.825163      1.116803      0.189256
O      -0.273226      1.701644     -0.780969
H      -0.260937     -0.750778     -1.712930
H      -1.965194     -1.101859     -1.480368
H      -0.746502     -2.198391     -0.812614
H      -1.807434     -0.638316      0.947844
H       0.220425      0.015724      2.102311
H       1.703435     -0.674317     -0.496700
H       1.749377      1.194128     -0.239980
H       2.413563     -0.104091      1.086102
H      -1.177184      1.708581      1.041768
H       1.070745      1.631671     -0.616357
