19
Extracted from Q-Chem output
C       1.675667      1.296390      0.007235
C       0.562067      0.343229      0.324761
C       0.951619     -1.498740     -0.306763
C      -0.729617      0.291379     -0.431738
C      -1.001001     -1.174501     -0.438207
C      -1.808653      1.035944      0.165115
O      -2.265427      0.869411      1.429916
H       1.642360      2.221924      0.586793
H       2.633003      0.816660      0.236532
H       1.678142      1.555902     -1.054068
H       0.436661      0.159480      1.393961
H       1.811376     -1.450838      0.383311
H       1.315601     -1.301673     -1.313972
H       0.682467     -2.566781     -0.255994
H      -0.580258      0.655453     -1.450111
H      -1.467964     -1.647808     -1.303603
H      -1.375608     -1.583468      0.500184
H      -2.329048      1.842513     -0.334620
H      -1.814399      0.132160      1.851185
