18
Extracted from Q-Chem output
C       3.132084      1.019781     -0.728344
O       1.840942      0.996486     -0.603462
C       0.961771      0.204942     -1.117590
C      -0.365915     -0.778071      1.347866
N      -1.005802     -0.681904      0.053262
C      -2.441932     -0.569230      0.182070
C      -0.459254      0.407985     -0.748494
H       3.626654      1.818080     -0.204768
H       3.619418      0.291797     -1.362120
H       0.710424     -0.904969      1.225332
H       1.309380     -0.609592     -1.743967
H      -0.751175     -1.646719      1.884221
H      -0.536382      0.116991      1.972792
H      -2.755051      0.343784      0.719787
H      -2.833225     -1.430434      0.726356
H      -2.906213     -0.555768     -0.805867
H      -0.544514      1.382236     -0.233589
H      -1.072030      0.471279     -1.654418
