13
Extracted from Q-Chem output
O       1.138850      2.221442      0.571697
C       0.714356      1.176687      0.165877
N       1.297847     -0.049465      0.208943
C       0.484019     -1.114998     -0.328272
C      -0.850964     -0.413886     -0.573758
C      -1.616558      0.132005      0.567175
N      -0.550321      1.018334     -0.504555
H       2.154196     -0.183041      0.713879
H       0.385060     -1.948426      0.370708
H       0.893172     -1.498090     -1.266784
H      -1.383610     -0.725207     -1.466489
H      -1.518651      1.396722      0.006546
H      -1.029413      0.049182      1.489928
