13
Extracted from Q-Chem output
O       1.277109     -0.369631      1.481473
C       0.408946     -0.158735      0.429824
C      -0.311159     -1.353500     -0.225285
N      -0.819040      0.430065     -0.970196
C      -0.837754      0.706305      0.525624
C       0.677174      0.551815     -0.900403
H       1.869928     -1.088909      1.246276
H      -0.871405     -0.716973     -1.252452
H      -1.162725     -1.635848      0.417274
H      -0.722045      1.780920      0.698580
H      -1.698399      0.311150      1.061087
H       1.203593     -0.002937     -1.675882
H       0.970646      1.600046     -0.858630
