16
Extracted from Q-Chem output
C      -0.975203     -0.130353      1.148737
C       0.005530     -0.166551      0.103251
C      -0.015617     -1.374426     -0.811486
C      -0.226691      1.190541     -0.556050
O       1.176900      1.505800     -0.608482
C       1.403320      0.443283      0.224871
N       2.418585      0.112736      0.870513
H      -1.635573     -0.970557      1.321043
H      -0.874614      0.584753      1.953543
H      -2.088115      0.403000     -0.125425
H       0.362785     -2.246168     -0.275780
H      -1.038912     -1.571638     -1.136529
H       0.602671     -1.212495     -1.694674
H      -0.762456      1.991738     -0.044123
H      -1.810565      0.676673     -0.897968
H       3.183722      0.765954      0.716973
