17
Extracted from Q-Chem output
C      -1.404424     -0.728820     -0.160273
C      -0.438935      0.404944      0.172582
O      -0.732432      1.533649     -0.692665
C      -0.364029      0.694797      1.601583
C       0.980583      0.046349     -0.205017
C       1.352967     -0.997967     -1.182568
O       1.975411      0.673663      0.326161
H      -2.409533     -0.393470      0.089155
H      -1.387006     -0.965868     -1.225260
H      -1.188579     -1.629519      0.416831
H      -1.157652      2.174035     -0.111405
H      -0.083177      1.703027      1.905155
H      -0.988032      0.143136      2.288367
H       2.432108     -1.075894     -1.291164
H       0.951847     -1.955412     -0.842647
H       0.881331     -0.782240     -2.143544
H       1.578171      1.143352      1.102921
