14
Extracted from Q-Chem output
C      -2.019053      0.447736      0.158133
C      -0.595561      0.290690     -0.267822
C       0.450419      1.011686      0.271548
C       1.732473      0.484053      0.114632
N       1.833102     -0.686220     -0.475194
C       0.361556     -1.696543     -0.055255
O       0.277201     -2.753699     -0.504090
H      -2.546992      1.111584     -0.532392
H      -2.096936      0.859860      1.163868
H      -2.534701     -0.512821      0.135810
H      -0.449980     -0.118549     -1.263258
H       0.274543      1.764524      1.030654
H       2.580946      0.932645      0.627069
H       2.743529     -1.128111     -0.400803
