14
Extracted from Q-Chem output
C       1.598233      0.555134      0.443774
C       0.351965      0.339530     -0.396783
C      -0.054020     -1.131765     -0.552252
C      -1.942703     -0.236848     -0.460594
O      -1.189271     -0.730810      0.851429
C      -0.970650      0.588814      0.273020
H       1.497536      0.075530      1.419880
H       1.770927      1.620396      0.606784
H       2.484454      0.146294     -0.045894
H       0.423583      0.842370     -1.363465
H       0.471886     -1.846666      0.079709
H      -0.280069     -1.527802     -1.531786
H      -2.982534     -0.054806     -0.170901
H      -1.205072      1.412416      0.942759
