15
Extracted from Q-Chem output
C      -1.748033      0.701667      0.244688
C      -0.915219     -0.225394     -0.602237
N       0.475970      0.145044     -0.794095
C      -0.125561     -1.295391      0.020352
C       1.620650     -0.292826      0.543495
O       1.489598      0.789520      1.354063
H      -2.722933      0.248423      0.434852
H      -1.262184      0.869248      1.205230
H      -1.904896      1.660961     -0.254909
H      -1.364245     -0.461796     -1.566932
H       0.819243     -0.185817     -1.689274
H       0.110692     -2.070800     -0.720740
H       2.449700     -0.240757     -0.170461
H       1.746510     -1.156910      1.181447
H       1.351624      1.557023      0.789530
