14
Extracted from Q-Chem output
C       1.456784      0.872964      0.972322
C      -0.081175     -0.118587     -0.467135
C      -0.712052     -1.350175     -1.018748
C      -0.850608     -1.026555      0.437323
C      -0.334814      1.218037     -0.739790
O       0.258088      2.087839     -0.072022
H       1.301252     -0.079881      1.459583
H       2.281498      0.898160      0.275149
H       1.416756      1.709188      1.657353
H      -1.597745     -1.261148     -1.640773
H      -0.052150     -2.162943     -1.300704
H      -0.280458     -1.611986      1.156188
H      -1.822953     -0.712893      0.800735
H      -1.005419      1.561760     -1.536817
