8
Extracted from Q-Chem output
O       0.469223     -1.487356     -0.017700
C      -0.190760     -0.494866     -0.708151
C       1.319669     -0.412282     -0.230506
C       2.325579      0.224921      0.038321
C      -1.366162     -0.005520     -0.091445
C      -2.423584      0.437210      0.274857
H       3.185394      0.845950      0.127109
H      -3.357595      0.823905      0.611225
