12
Extracted from Q-Chem output
O       1.642816     -0.630389      0.626603
C       1.676915      0.782727      0.350179
C       0.460232     -0.002968      0.278234
C      -0.458404     -0.452956     -0.840451
C      -1.545970     -0.343929      0.235270
O      -0.575018      0.073652      1.218554
H       1.837453      1.410702      1.221218
H       2.211383      1.066537     -0.551964
H      -0.245238     -1.459021     -1.194997
H      -0.546619      0.233282     -1.679732
H      -2.028421     -1.278467      0.526139
H      -2.298540      0.428424      0.069738
