13
Extracted from Q-Chem output
O       2.159211      1.245867     -1.206244
C       1.703897      0.188137     -0.900335
N       0.335180      0.002097     -0.562036
C      -0.596725      1.002528      0.075155
C      -1.507363     -0.223633      0.165328
C      -0.226382     -1.025494      0.385178
H       2.267950     -0.759360     -0.898035
H      -0.122587      1.350727      1.006312
H      -0.836626      1.842292     -0.574225
H      -2.314944     -0.261760      0.892427
H      -0.520399     -0.260858     -1.267192
H      -0.132336     -2.049870      0.022499
H       0.287099     -0.902679      1.353550
