13
Extracted from Q-Chem output
C      -1.474084     -0.099306     -0.454126
N      -0.038641      0.034463     -0.217011
C       0.663892      1.035082      0.674940
C       1.862365      0.205946      0.123828
O       1.263526      0.369997     -1.172034
C       0.916945     -1.019880      0.298041
H      -1.646805     -0.896594     -1.174664
H      -1.955773     -0.348802      0.495767
H      -1.866522      0.843640     -0.830260
H       0.581439      2.053481      0.299970
H       0.348671      0.940877      1.719223
H       0.632524     -1.373527      1.294372
H       1.061430     -1.831470     -0.412478
