12
smiles: [C:5](=[O:6])([H:11])[H:12].[O:1]1[C@@:2]2([H:7])[C:3]([H:8])([H:9])[C@@:4]12[H:10]
O        0.60972800       0.64581400       1.04588200
C        1.64311000       0.27631900       0.12175800
C        0.93469600      -0.90834800      -0.45451900
C        1.12754300      -0.69167600       1.01300100
C       -2.42986500       0.88309900      -0.40840400
O       -2.33441900       0.06039300      -1.27091200
H        2.58342600       0.78866700       0.02083300
H        1.55866800      -1.66718300      -0.91847600
H       -0.05617000      -0.77203400      -0.87913600
H        1.51489200      -1.21759000       1.86752600
H       -3.34502700       1.49234600      -0.27903800
H       -1.60847400       1.07962700       0.30705000
