12
Extracted from Q-Chem output
C      -1.986894      0.883172     -0.332322
C      -0.634457      0.386053      0.007450
O      -0.229272     -0.687943     -0.555187
C       0.936939     -1.312897     -0.399368
C       1.882623     -0.794560      0.474646
C       2.646747     -0.276527      1.255632
H      -2.467339      0.215334     -1.046609
H      -1.943405      1.885402     -0.769739
H      -2.618182      0.949955      0.559033
H       0.033977      0.878048      0.705257
H       1.027615     -2.204343     -0.991471
H       3.338291      0.155932      1.938522
