16
Extracted from Q-Chem output
C       1.912149     -0.209333      0.102261
C       0.433455     -0.133671      0.443780
C      -0.177396      1.275725      0.354778
C      -1.622960      1.215184      0.058909
C      -1.837614     -0.203882     -0.301558
C      -0.492652     -0.919785     -0.486376
H       2.509026      0.407640      0.777464
H       2.091814      0.143082     -0.917595
H       2.286688     -1.232888      0.170405
H       0.113966      1.995448      1.121646
H       0.131595      1.742984     -0.605890
H       0.288096     -0.497508      1.468569
H      -2.298866     -0.515762      0.658770
H      -2.609319     -0.380843     -1.051573
H      -0.156281     -0.814048     -1.523823
H      -0.530294     -1.987175     -0.263191
