17
Extracted from Q-Chem output
C      -1.814422      0.622559      0.035342
C      -1.483775     -0.749964     -0.447196
C      -0.461101     -1.511085     -0.063308
C       1.479246      0.970049     -1.164780
C       1.476343      1.015974      0.161403
C       1.346278     -0.133413      1.067063
C       0.556720     -1.204376      0.952711
H      -1.538880      1.369092     -0.716176
H      -2.887663      0.720915      0.212038
H      -1.282217      0.870731      0.953559
H      -2.157042     -1.166368     -1.191755
H      -0.395448     -2.510737     -0.486424
H       1.358900      0.036194     -1.700779
H       1.607829      1.869644     -1.753947
H       1.634361      1.975715      0.648375
H       1.992565     -0.096216      1.940450
H       0.684595     -1.979015      1.705843
