17
Extracted from Q-Chem output
C       2.044627     -0.486975      0.885436
O       1.266746     -1.255617     -0.029638
C       1.052269     -0.657731     -1.199135
C      -0.924635      0.175942     -1.062994
C      -1.591551     -0.375634      0.148000
C      -1.440145      1.101956     -0.020712
O      -0.490677      1.789269      0.744345
H       2.991500     -0.205497      0.423017
H       2.220500     -1.119768      1.754004
H       1.499110      0.413528      1.174956
H       0.391151      0.392766     -1.186101
H       0.600313     -1.377754     -1.885944
H      -1.399237      0.132993     -2.034512
H      -2.571950     -0.827166      0.057322
H      -0.929755     -0.857217      0.864421
H      -2.320662      1.690821     -0.266492
H      -0.844988      1.901920      1.628675
