14
Extracted from Q-Chem output
O      -0.841126     -1.206225      1.213688
C      -0.723479     -0.702167     -0.100911
C      -1.176560      0.767390     -0.254161
N       0.175056      1.251325     -0.621111
C       0.678673     -0.251716     -0.432817
C       1.886409     -0.377353      0.305443
O       2.628593      0.565304      0.541445
H      -1.614089     -1.770380      1.267407
H      -1.177227     -1.402489     -0.808119
H      -1.479694      1.173015      0.710020
H      -1.928122      0.990956     -1.011132
H       0.695495      1.884996     -0.021310
H       0.658467      0.556955     -1.453626
H       2.133893     -1.401069      0.640850
