12
Extracted from Q-Chem output
C      -1.915461      0.125478     -0.431331
C      -0.449879      0.438545     -0.413486
C       0.551137     -0.544317      0.016066
O       0.364079     -0.233374     -1.358416
C       1.796989     -0.138831      0.625109
C       2.823640      0.182233      1.149992
H      -2.387389      0.465442      0.492367
H      -2.080948     -0.946898     -0.539914
H      -2.398919      0.633284     -1.267797
H       0.204581     -1.533818      0.303626
H      -0.184492      1.485505     -0.279733
H       3.738656      0.473489      1.609305
