12
Extracted from Q-Chem output
C      -1.886861      0.212796     -0.494618
C      -0.595090      0.388265      0.146195
C       0.504009     -0.521900     -0.155975
O       0.491725     -0.792464     -1.448502
C       1.797208     -0.113148      0.434309
C       2.847428      0.212967      0.906536
H      -2.706906      0.491291      0.171158
H      -1.974829     -0.780844     -0.934471
H      -1.918443      0.918364     -1.338112
H       0.158606     -1.379067      0.534745
H      -0.443708      1.269504      0.773283
H       3.788853      0.500971      1.311238
