13
Extracted from Q-Chem output
C       1.894991     -0.134705     -0.355070
C       0.741422      0.672751      0.181385
O       0.765779      1.873658      0.286042
N      -0.324687     -0.093034      0.650375
C      -1.233393     -0.797754     -0.225479
C      -1.677216      0.380864      0.571434
H       2.504588      0.489711     -1.003799
H       2.505586     -0.461930      0.488832
H       1.558546     -1.025049     -0.885712
H      -1.508139     -1.800713      0.079564
H      -1.113329     -0.654062     -1.294835
H      -2.280782      0.232253      1.458358
H      -1.833366      1.318011      0.048904
