13
Extracted from Q-Chem output
C      -1.097742      0.918529      0.189579
C      -0.997975     -0.595260      0.094722
C      -0.128964      0.573038     -0.860756
N       1.285443      0.464788     -0.708476
C       1.426240     -0.171682      0.602152
C       0.340380     -1.045304      0.148253
H      -0.742246      1.388444      1.101330
H      -2.050195      1.303159     -0.152560
H      -1.742491     -1.172540     -0.429239
H      -0.488029      0.581399     -1.885569
H       1.217352      0.424953      1.501577
H       2.389360     -0.666060      0.700768
H       0.587670     -2.001738     -0.301361
