13
smiles: [C:1]1([H:7])([H:8])[N:2]([H:9])[C:3]([H:10])=[C:4]1[H:11].[C:5](=[O:6])([H:12])[H:13]
C       -1.18627400      -0.81410500       0.01958700
N       -1.38278900       0.65629000       0.20255900
C       -0.51657100       0.82655100      -0.91052500
C       -0.36822700      -0.46839400      -1.20114500
C        1.87996000       0.14595000       0.86240400
O        1.21817600       0.25583200       1.85226200
H       -0.63634700      -1.27988500       0.84000500
H       -2.12673600      -1.34363600      -0.14383200
H       -1.06552600       1.03597900       1.08636300
H       -0.20450300       1.77228700      -1.33599100
H        0.04587900      -1.03211100      -2.02089600
H        2.18086500      -0.84277600       0.46588500
H        2.22832000       1.02708700       0.29008700
