13
Extracted from Q-Chem output
C      -1.417114     -0.509699      0.012311
N      -1.603212      0.866361      0.289528
C      -0.401299      0.937104     -0.527715
C       0.269272     -0.380863     -0.335241
C       2.042365     -0.025456      0.388651
O       0.925847     -0.571291      0.907291
H      -1.382499     -1.201187      0.858600
H      -1.976679     -0.869416     -0.844345
H      -1.411141      1.081383      1.261266
H      -0.577167      1.257690     -1.552615
H       0.595728     -1.063730     -1.107468
H       2.965612     -0.578357      0.514941
H       1.999932      1.032049      0.133113
