15
Extracted from Q-Chem output
C      -2.249821      0.303622      0.382678
C      -0.959004     -0.476584      0.279316
C       0.150885     -0.171431      1.092880
O       1.089247      0.701652     -0.279644
C       2.220882      0.046062     -0.789250
H      -2.056542      1.351571      0.624001
H      -2.794115      0.287966     -0.563467
H      -2.921678     -0.094924      1.149011
H      -0.018510      0.169051     -0.541991
H      -1.046198     -1.513612     -0.033407
H       0.894079     -0.927893      1.321713
H       0.135487      0.675997      1.768712
H       2.038108     -1.030655     -0.932185
H       2.497631      0.473974     -1.756515
H       3.070502      0.166727     -0.111339
