12
smiles: [C:1]([C:2](=[C:5]=[O:6])[H:10])([H:7])([H:8])[H:9].[C:3](=[O:4])([H:11])[H:12]
C        1.38767800      -0.46491200       0.57094300
C        0.14540500      -1.15094400       0.06561900
C       -1.35245600       1.62962400      -0.00096800
O       -0.87548900       2.12220400       0.97865500
C       -0.15083600      -1.25457800      -1.20388600
O       -0.41145800      -1.34548900      -2.32984700
H        1.13431100       0.37839800       1.21638300
H        2.00890400      -1.15346800       1.14693700
H        1.99080600      -0.08357100      -0.25270100
H       -0.56658800      -1.59394600       0.75010800
H       -2.29921900       1.05701400       0.03277000
H       -0.87269000       1.71906000      -0.99454900
