16
Extracted from Q-Chem output
C      -1.855850      0.722407     -0.307793
C      -0.575841     -1.485234      0.264547
O      -0.834772     -0.171951     -0.750187
C       0.387080     -0.377506      0.072286
C       1.572610     -0.484654     -0.855944
C       0.594541      0.606057      1.195756
H      -2.686075      0.583197     -0.997561
H      -1.491236      1.748954     -0.368164
H      -2.171496      0.469406      0.701853
H      -0.350144     -2.241278     -0.503009
H       1.313199     -1.069017     -1.738037
H       1.937194      0.496272     -1.171450
H       2.385724     -0.995225     -0.335127
H       1.435531      0.246159      1.791846
H      -0.269432      0.655669      1.854045
H       0.851519      1.604207      0.831594
