14
Extracted from Q-Chem output
C      -1.056075     -0.636180      1.080528
N      -0.501270     -0.263007     -0.262326
C      -0.899973      1.122514     -0.621227
C       0.968391     -0.413554     -0.594117
O       1.294125     -0.573896     -1.739073
N       1.732827     -0.326378      0.491679
H      -0.644295     -1.617192      1.336291
H      -0.717580      0.126586      1.791538
H      -0.943455     -0.873610     -0.946633
H      -0.582933      1.349720     -1.637588
H      -1.978837      1.182423     -0.508937
H      -0.426022      1.800892      0.085940
H       2.722661     -0.462754      0.404322
H       1.266147     -0.376680      1.387740
