13
Extracted from Q-Chem output
N       0.996846      1.308860      0.441476
C       0.865595      0.435362     -0.582663
C      -0.131957     -0.681558     -0.356250
O       0.021543     -1.659477     -1.205040
C      -1.146235     -0.739124      0.599115
C      -1.318663      0.258852      1.540891
N       1.467448      0.397239     -1.705871
H       1.504953      2.157229      0.263215
H       0.221611      1.301980      1.125489
H      -0.653357     -2.331849     -1.043827
H      -1.766887     -1.643788      0.532375
H      -2.164662      0.011399      2.196345
H       2.103765      1.184874     -1.805255
