13
Extracted from Q-Chem output
N       1.925825      0.659736      0.176391
C       0.639028      0.601174     -0.310203
C      -0.103037     -0.622211      0.066909
O       0.654413     -1.728883      0.061931
C      -1.439063     -0.622594      0.339911
C      -2.187835      0.561744      0.466952
N       0.018909      1.482359     -0.987771
H       2.552404      1.311877     -0.260168
H       2.344995     -0.204665      0.471324
H       0.145601     -2.469188      0.409106
H      -1.895719     -1.613869      0.451977
H      -3.241875      0.325595      0.233689
H       0.586356      2.318924     -1.120044
