11
Extracted from Q-Chem output
C      -0.836492     -0.350958     -0.262751
C       0.119682      0.785566     -0.559926
C       1.344610      0.481534      0.317509
O       2.347446      1.132612      0.335613
C       1.088280     -0.778157      1.159326
N      -0.095860     -1.129938      0.763025
H      -0.540446     -1.949930      1.150406
H      -1.037268     -0.990821     -1.123132
H      -1.791101     -0.025398      0.152287
H      -0.277339      1.762176     -0.283157
H       0.427008      0.835236     -1.603763
