11
Extracted from Q-Chem output
C      -1.016922     -0.261622     -0.386662
C      -0.018489      0.767277     -0.511889
C       1.356914      0.548048      0.327574
O       2.251385      1.308226      0.320209
C       1.295153     -0.809971      1.127532
N       0.292213     -1.457020      1.010731
H      -0.613555     -1.823791      0.767422
H      -1.178630     -0.929251     -1.225933
H      -1.901786     -0.051535      0.204286
H      -0.331858      1.743262     -0.138535
H       0.376219      0.890137     -1.521501
