11
Extracted from Q-Chem output
C       2.882438      0.493196     -0.360228
C       1.719684      0.270562     -0.184947
C       0.336975      0.037165      0.043868
C      -0.585681      0.744748      0.740269
C      -1.859414      0.044893      0.709932
C      -1.537208     -1.012904     -0.165971
O      -0.205403     -1.055097     -0.540071
H       3.917348      0.688087     -0.518278
H      -0.382920      1.662037      1.270526
H      -2.193035     -0.087311     -0.644372
H      -2.086821     -1.916380     -0.392718
