14
smiles: [C-:2]1=[O+:6][C:5]([H:13])([H:14])[O:4][C:3]1([H:11])[H:12].[C:1]([H:7])([H:8])([H:9])[H:10]
C       -2.20657400       0.22614900       0.58288800
C        1.18801200      -0.63318300       1.07326000
C        1.03543100      -1.24648500      -0.28426400
O        0.85351700      -0.17618600      -1.21164100
C        1.23894800       0.97836500      -0.57088600
O        1.27857400       0.63624800       0.85836200
H       -3.28632300       0.10407000       0.51073100
H       -1.97750600       1.23105400       0.93441500
H       -1.75792300       0.07465000      -0.39773200
H       -1.80486400      -0.50429700       1.28350600
H        1.94214100      -1.82943000      -0.49924700
H        0.17569300      -1.91746600      -0.32459300
H        2.24962500       1.30824700      -0.83573400
H        0.50820500       1.77545900      -0.70973800
