14
Extracted from Q-Chem output
C      -1.777205      0.166671      0.320275
C       0.194414     -0.314387      0.985569
C       0.602048     -1.161350     -0.175804
O       0.932582     -0.213254     -1.195185
C       1.361807      0.927093     -0.525776
O       0.829795      0.857472      0.811091
H      -2.502271     -0.646161      0.348210
H      -2.142452      1.066626      0.811342
H      -1.444385      0.371175     -0.691230
H      -0.938916     -0.258603      1.341638
H       1.493865     -1.738225      0.100834
H      -0.164337     -1.837904     -0.545761
H       2.453700      0.971409     -0.434586
H       0.975956      1.816304     -1.028850
