11
Extracted from Q-Chem output
O       2.127797     -1.051185      0.148761
C       1.109172     -0.402693      0.094422
N      -0.129209     -0.951454      0.081578
C      -1.371114     -0.250728     -0.110861
C       0.229039      2.008140     -0.021884
C       1.147070      1.098526      0.050659
H      -0.128560     -1.957495      0.085750
H      -2.183290     -0.824395      0.333639
H      -1.596268     -0.068883     -1.164900
H      -1.353274      0.715928      0.409962
H       2.141648      1.551988      0.076828
