21
Extracted from Q-Chem output
C       1.508839     -0.926172      0.838591
C       1.229197     -0.713177     -0.552127
C      -0.037620      0.504884     -0.540762
C       0.700229      1.827767     -0.382874
C      -1.045721      0.526096     -1.502096
C      -0.786062      0.135994      0.727873
C      -1.612922     -1.131207      0.813358
H       2.308475     -0.366675      1.311592
H       0.314681     -0.231069      1.321602
H       1.322867     -1.898709      1.281040
H       2.011325     -0.235458     -1.134967
H       0.825281     -1.573639     -1.078551
H       1.215840      2.091008     -1.308078
H       1.440672      1.770819      0.417262
H       0.001677      2.631185     -0.140120
H      -1.167109      1.347069     -2.201647
H      -1.709540     -0.318967     -1.629271
H      -1.271750      0.991478      1.201556
H      -1.745529     -1.401861      1.862814
H      -1.115579     -1.968126      0.318489
H      -2.607803     -1.022721      0.381966
