14
Extracted from Q-Chem output
C      -2.020841      0.611871      0.065446
C      -0.589874      0.248130     -0.184487
O      -0.444514     -1.145927     -0.450755
C       0.936075     -1.308726     -0.415514
C       1.409522     -0.045471      0.268918
N       2.427902      0.463221      0.670481
O       0.187474      1.003824     -0.872429
H      -2.071275      1.607844      0.500702
H      -2.507450     -0.112142      0.716617
H      -2.530641      0.629385     -0.900255
H       0.081893      0.158336      0.963146
H       1.398482     -1.313752     -1.405971
H       1.207997     -2.204447      0.145882
H       2.566328      1.395768      1.015860
