13
Extracted from Q-Chem output
C       2.215515      0.338131     -0.125753
C       0.909145     -0.040082     -0.102282
C       0.215427     -1.258267     -0.317080
N      -1.135705     -1.016618     -0.048820
C      -1.330793      0.238804      0.250660
O      -2.519129      0.793543      0.526940
N      -0.145432      0.869953      0.201078
H       2.504030      1.359553      0.077436
H       2.984524     -0.380665     -0.360880
H       0.006120      1.802454      0.539799
H       0.592951     -2.260973     -0.381122
H      -1.883460     -1.680070     -0.144041
H      -2.735013      1.469323     -0.124293
