13
Extracted from Q-Chem output
C       2.061880      0.659617      0.094778
C       0.811127     -0.099713     -0.075202
C       0.204585     -1.285250     -0.337804
N      -1.180286     -1.069853     -0.214353
C      -1.384289      0.206226      0.112247
O      -2.605520      0.691978      0.305565
N      -0.219275      0.803614      0.205226
H       2.466465      0.981415     -0.868593
H       2.833132      0.129811      0.654558
H       0.560749      1.597243      0.489840
H       0.591065     -2.250284     -0.611248
H      -1.914197     -1.748961     -0.315559
H      -2.547262      1.619246      0.552189
