16
Extracted from Q-Chem output
C       1.138099     -0.731420     -0.811444
C       1.632664     -0.592430      0.605334
C       1.195126      0.849287      0.539738
C       0.271760      0.543659     -0.665708
C      -1.195301      0.295582     -0.326058
C      -1.446793     -0.631426      0.857789
H       0.720557     -1.691474     -1.121896
H       2.006748     -0.534630     -1.453828
H      -1.054456     -0.218136      1.788980
H       2.076678      1.418943      0.217297
H       0.828168      1.316563      1.455554
H       0.324549      1.250209     -1.497140
H      -1.683998     -0.112216     -1.216688
H      -1.672062      1.262240     -0.135571
H      -0.983972     -1.611123      0.717384
H      -2.516585     -0.793375      0.998060
