16
Extracted from Q-Chem output
C       1.037785     -0.722089     -0.704557
C       1.042518     -0.586854      0.824837
C       0.947714      0.925827      0.581537
C       0.282522      0.619632     -0.774435
C      -1.177721      0.297216     -0.464544
C      -1.193761     -0.638231      0.737536
H       0.614552     -1.615553     -1.166554
H       2.073713     -0.609822     -1.033429
H      -0.096814     -0.994193      1.263312
H       1.970361      1.286453      0.447072
H       0.441502      1.560532      1.310623
H       0.416454      1.292829     -1.627038
H      -1.653412     -0.173405     -1.327536
H      -1.731976      1.213084     -0.248839
H      -1.595093     -1.629691      0.529410
H      -1.663123     -0.218518      1.626664
