15
Extracted from Q-Chem output
C      -1.516792      1.111467     -0.550091
C      -0.124411      0.533105     -0.538208
O       0.448005      0.669910      0.754597
C      -0.027631     -0.969926     -0.747446
O       1.148712     -1.318029     -0.042913
C       1.443237     -0.305358      0.895257
O       1.483268     -0.765341      2.183365
H      -2.143508      0.610156      0.189364
H      -1.969808      0.988046     -1.535719
H      -1.491054      2.176116     -0.317922
H       0.510420      1.051817     -1.269356
H       0.600016     -1.063243      2.423469
H       0.084861     -1.258986     -1.792808
H      -0.901142     -1.481566     -0.324491
H       2.440524      0.093238      0.684281
