15
Extracted from Q-Chem output
C      -1.533647      0.983214     -0.376310
C      -0.084933      0.567030     -0.496399
O       0.634408      0.818411      0.705448
C       0.105366     -0.935140     -0.755699
O       1.425625     -1.185484     -0.292934
C       1.571174     -0.628895      0.933800
O       0.827168     -0.975703      1.934603
H      -2.025676      0.434406      0.429551
H      -2.065076      0.776823     -1.307464
H      -1.612461      2.049858     -0.167744
H       0.414024      1.135552     -1.286601
H       0.267119      0.101715      1.604283
H       0.068957     -1.197392     -1.810808
H      -0.619258     -1.534839     -0.197860
H       2.611910     -0.338148      1.095510
