12
Extracted from Q-Chem output
N      -1.809421     -0.658732      0.700995
C      -0.587214     -0.194045      0.224078
N       0.577774     -0.842650      0.071121
C       1.605112      0.018648     -0.463473
O       2.744428     -0.372342     -0.681668
C       0.917680      1.236603     -0.606083
N      -0.384649      1.043633     -0.179238
H      -1.782400     -0.956197      1.665879
H      -2.222582     -1.378391      0.125237
H       0.743195     -1.808880      0.292387
H       1.267141      2.183370     -0.971815
H      -1.115183      1.733300     -0.162546
