12
Extracted from Q-Chem output
N      -1.754753     -0.694410      0.864035
C      -0.603291     -0.220941      0.286322
N       0.568725     -0.816881      0.246918
C       1.502492      0.027257     -0.351695
O       2.604014     -0.644503     -0.372688
C       0.869780      1.187347     -0.687077
N      -0.478251      0.986867     -0.275626
H      -1.709920     -1.669518      1.108251
H      -2.609897     -0.452312      0.391600
H       1.600834     -1.478723      0.236007
H       1.179075      2.080258     -1.195176
H      -1.185372      1.697556     -0.245364
