17
Extracted from Q-Chem output
C       2.909120     -1.214536     -0.226332
C       1.421586     -0.993975     -0.364087
O       1.110316      0.262012      0.199994
C      -0.191353      0.651440      0.175851
C      -2.812504      1.607347      0.212912
C      -1.213728     -0.034191     -0.336001
O      -2.515462      0.358975     -0.358505
H       3.202854     -1.202529      0.823957
H       3.188034     -2.179511     -0.652556
H       3.462358     -0.432877     -0.748123
H       1.119372     -1.009116     -1.419770
H       0.859178     -1.781330      0.155345
H      -0.307018      1.621948      0.637852
H      -3.885489      1.752130      0.104618
H      -2.548890      1.631455      1.276868
H      -2.284734      2.418409     -0.302557
H      -1.102468     -1.004374     -0.799095
