19
Extracted from Q-Chem output
C      -1.632030     -1.772043      0.226156
C      -0.761370     -0.628754     -0.271270
C      -1.326628      0.765059      0.081354
C      -0.326894      0.983391      1.185807
O       0.954118      1.239136      0.747059
C       1.249157      0.750451     -0.431916
C       2.690058      0.495166     -0.694896
H      -2.552641     -1.846200     -0.364370
H      -1.109006     -2.726881      0.145989
H      -1.914414     -1.638472      1.274469
H      -0.489164     -0.816563     -1.308926
H      -2.342403      0.714444      0.478972
H      -1.324624      1.511668     -0.720170
H      -0.111841     -0.381967      0.950424
H      -0.535492      1.550912      2.089852
H       0.602754      0.999424     -1.263595
H       3.167294      0.038818      0.172220
H       2.793672     -0.176562     -1.547905
H       3.228361      1.419058     -0.935998
