15
Extracted from Q-Chem output
C      -1.679152     -0.349304     -0.705156
O      -0.696168     -1.419465     -0.751032
C      -0.074751     -0.991179      0.378214
C       1.423547     -0.969770      0.430154
C       1.516806      0.510350      0.379715
C       0.279934      1.213611     -0.226959
C      -0.840789      0.368333      0.352824
H      -1.755217      0.156985     -1.668630
H      -2.646678     -0.746597     -0.395215
H       1.867025     -1.354319      1.344432
H       1.761918     -1.554181     -0.426017
H       1.712925      0.917726      1.375836
H       0.241408      2.255057      0.088098
H       0.275467      1.201168     -1.321982
H      -1.320566      0.741326      1.254616
