15
Extracted from Q-Chem output
C      -1.676491     -0.421941     -0.735192
O      -0.886844     -1.647704     -0.644306
C      -0.061798     -1.034424      0.247159
C       1.361324     -0.881518      0.289056
C       1.603273      0.537781      0.175460
C       0.280542      1.287094     -0.099844
C      -0.794536      0.285004      0.319320
H      -1.589607     -0.001753     -1.738923
H      -2.716115     -0.611747     -0.471301
H       1.112409     -1.166623      1.417881
H       2.017032     -1.680571     -0.043995
H       2.342373      1.011373      0.813373
H       0.200604      2.202230      0.486526
H       0.188668      1.588998     -1.155447
H      -1.315121      0.513540      1.249130
