8
smiles: [N:1](=[C:2]([H:7])[H:8])[H:6].[O:3]=[C:4]=[O:5]
N       -0.77410200      -0.23855400       0.40799900
C       -1.21759700       0.82720300      -0.09841900
O        2.00546700      -1.73377900       0.52207900
C        2.00272700      -0.74754700      -0.08151600
O        1.99998600       0.23868300      -0.68511000
H       -1.50163600      -0.72496900       0.93028600
H       -2.24700800       1.18461600       0.00696200
H       -0.54512600       1.45110200      -0.68813000
