16
Extracted from Q-Chem output
C       2.095766      0.499367      0.137624
C       0.878957     -0.029674     -0.605068
C      -0.249910     -0.408913      0.347531
C      -1.540855     -0.806056     -0.336995
O      -2.347841      0.386610     -0.107652
C      -0.872910      0.801062      1.061694
H       2.515300     -0.265563      0.796800
H       1.815063      1.357947      0.751842
H       2.881821      0.814263     -0.550413
H       1.154949     -0.897479     -1.215535
H       0.512093      0.739656     -1.294961
H       0.099974     -1.184948      1.038415
H      -2.071787     -1.612755      0.165039
H      -1.470363     -1.031001     -1.405169
H      -1.418293      0.420055      1.939434
H      -2.149326      1.047804     -0.775726
