12
Extracted from Q-Chem output
C      -1.281246      0.223171      0.951808
N       0.004829      0.531095      0.358044
C       0.166133      0.521687     -1.071849
C       0.737863     -0.536120     -0.198905
C       2.240498     -0.784600      0.568597
N       2.563545     -0.404868     -0.505296
H      -1.122412     -0.167075      1.957129
H      -1.854234     -0.511820      0.369792
H      -1.863485      1.141702      1.022838
H       0.800592      1.292606     -1.487201
H      -0.675663      0.212858     -1.688535
H       0.321921     -1.532947     -0.270780
