15
Extracted from Q-Chem output
C      -2.313921     -0.410422      0.121331
C      -0.846518     -0.094161      0.147656
C      -0.283329      1.099104     -0.476929
N       1.044090      0.909455     -0.475286
C       1.325117     -0.329819      0.102515
N       2.680134     -0.648632      0.260599
C       0.207628     -1.007122      0.514345
H      -2.518618     -1.061283     -0.729648
H      -2.591145     -0.952622      1.024036
H      -2.937241      0.481808      0.027530
H      -0.769761      1.951382     -0.928440
H       1.723471      1.635317     -0.636062
H       2.743553     -1.521086      0.765061
H       3.175260     -0.734117     -0.616948
H      -0.691738      0.938039      0.846884
