14
smiles: [H:8][H:14].[N:1]#[C:2][C@:7]12[O:3][C@@:4]1([H:9])[C:5]([H:10])([H:11])[C:6]2([H:12])[H:13]
N        3.05561900      -0.38771700       0.58576000
C        1.91557200      -0.49896400       0.52043100
O       -0.11145800      -1.86418900       0.34201800
C       -0.40701800      -0.91495800      -0.66693300
C       -1.49447100       0.00697000      -0.12434900
C       -0.54880900       0.36346500       1.06203100
C        0.48469800      -0.58357400       0.45341800
H        1.57048600       1.90153600      -1.30967200
H       -0.16604600      -1.18129000      -1.68728100
H       -2.42917100      -0.49432600       0.12206100
H       -1.68995300       0.86069300      -0.77125000
H       -0.87093600       0.08631900       2.06433600
H       -0.22808200       1.40349800       1.04479600
H        0.95465500       2.20016400      -1.60287100
