11
Extracted from Q-Chem output
N       0.935490      0.437217      0.993602
C       1.135582      0.520361     -2.336867
N      -1.617987     -1.560022      0.015816
N      -0.471741     -1.234828      0.005599
C      -0.028687      0.264139     -0.033254
O      -1.173522      0.964180      0.073806
N       0.617399      0.431296     -1.295981
H       0.477315      0.664429      1.865595
H       1.613917      1.148050      0.764101
H       0.344410     -1.871455      0.059273
H      -1.886913      0.273830     -0.008618
