19
Extracted from Q-Chem output
C      -1.890758     -1.676793     -1.078480
C      -1.256213     -0.294394     -1.015989
C      -0.675058      0.018125      0.358768
C      -0.010860      1.376765      0.444365
O       1.109803      1.481398     -0.480909
C       2.319058      1.055704     -0.279626
C       2.594811      0.380313      1.033068
H      -2.699152     -1.777222     -0.349670
H      -2.307375     -1.877738     -2.066579
H      -1.155327     -2.456183     -0.864514
H      -2.000813      0.466831     -1.270729
H       0.043366     -0.757381      0.641746
H      -1.470147     -0.010079      1.112116
H       0.317954      1.612920      1.455642
H      -0.689463      2.163696      0.114085
H      -0.467574     -0.213926     -1.768334
H       1.848429      0.392783      1.832138
H       2.813954     -0.660703      0.769424
H       3.540731      0.779155      1.404367
