19
Extracted from Q-Chem output
C      -0.968007     -1.676144     -0.814825
C      -0.778352     -0.179280     -0.745555
C      -1.008939      0.443333      0.618775
C      -0.152954      1.708615      0.822501
O       0.748086      1.815956     -0.282694
C       1.253701      0.655176     -0.747479
C       1.884871     -0.253725      0.274125
H      -1.998433     -1.951288     -0.572011
H      -0.749104     -2.062239     -1.811472
H      -0.317819     -2.185470     -0.099564
H      -1.354858      0.345726     -1.513562
H      -0.783440     -0.295924      1.390033
H      -2.065504      0.697680      0.731710
H       0.384625      1.673705      1.774151
H      -0.746376      2.622049      0.802241
H       0.330692      0.080828     -1.381320
H       1.399931     -0.342883      1.253825
H       2.019139     -1.249519     -0.148242
H       2.885351      0.153861      0.444599
