14
Extracted from Q-Chem output
O       1.964403     -0.141776     -0.589391
C       0.954113      0.073070      0.408272
C       0.222730      1.334869      0.134171
N      -0.875912      0.827300     -0.940186
C      -1.090498     -0.605389     -0.803080
C      -0.043595     -1.070440      0.206938
O      -0.028215     -2.152393      0.724729
H       2.398879     -0.979663     -0.404000
H       1.381077      0.055953      1.413882
H      -0.286963      1.759306      0.994958
H       0.063016      1.397571     -1.248099
H      -1.691700      1.417194     -0.949644
H      -0.980428     -1.148239     -1.742921
H      -2.084265     -0.803882     -0.398720
