14
Extracted from Q-Chem output
O       1.073124      0.234079     -1.825596
C       1.579610      0.739125     -0.676253
C       1.293421      0.334584      0.556816
C       0.390491     -0.823166      0.884130
C      -1.055598     -0.702739      0.472664
C      -1.641269      0.362987     -0.053703
H       2.281461      1.540788     -0.872212
H       1.778404      0.859559      1.369087
H       0.789226     -1.740416      0.430492
H       0.418935     -1.014008      1.960414
H       0.313580     -0.324292     -1.625270
H      -1.650838     -1.597723      0.639216
H      -2.693263      0.350568     -0.310633
H      -1.095841      1.284101     -0.228130
