12
Extracted from Q-Chem output
C      -1.817208     -0.251424     -0.013592
C      -0.420917      0.312455      0.036404
C       0.652469     -0.690925     -0.023236
C       1.917170     -0.354114      0.114919
N       3.065715     -0.068833      0.355032
N      -0.130286      1.547065      0.120139
H      -2.563472      0.539769      0.050157
H      -1.967758     -0.803469     -0.944481
H      -1.975594     -0.952834      0.808692
H       0.423852     -1.735502     -0.189092
H       3.657509      0.219343     -0.416969
H      -0.972994      2.113690      0.165848
