12
Extracted from Q-Chem output
C      -1.718447     -0.255685     -0.071473
C      -0.291972      0.222478      0.019591
C       0.741330     -0.794054     -0.066601
C       1.932088     -0.161474      0.030091
N       2.535344      0.901595      0.159486
N       0.065082      1.442838      0.160219
H      -2.420598      0.568512      0.046021
H      -1.891334     -0.730511     -1.039204
H      -1.917727     -1.000623      0.700899
H       0.588706     -1.850796     -0.183585
H       3.086428     -0.431363      0.031533
H      -0.710204      2.091712      0.212698
