14
smiles: [C:1]([O:2][C:3]([H:10])([H:11])[H:13])([H:7])([H:8])[H:9].[C:4](=[C+:5][H:14])([O-:6])[H:12]
C       -1.77728300      -0.18735200      -0.09723300
O       -0.87247500       0.84094800      -0.39367300
C       -0.52522400       1.58900200       0.73941700
C        1.76416700      -0.83097000      -0.50662900
C        2.91844300      -1.54166500      -0.62465900
O        1.65592800      -1.11268400       0.70725200
H       -1.35639400      -0.89904700       0.62632100
H       -2.71552100       0.20904700       0.31465400
H       -1.99393300      -0.71447200      -1.02559000
H       -0.03929700       0.96387800       1.50115800
H       -1.40593700       2.06401000       1.19291900
H        1.13832100      -0.15111600      -1.08712900
H        0.17150800       2.36432800       0.42325200
H        2.85493700      -2.61395000      -0.80240100
