16
smiles: [C:1](=[C:2]([O:3][H:12])[H:11])([H:8])[H:9].[C:4](=[N:5][H:15])([H:13])[H:14].[C:6](=[O:7])([H:10])[H:16]
C       -0.63477700       0.06647000      -2.84028400
C       -1.10186700       0.02226600      -1.60410400
O       -1.07575200      -1.11147500      -0.85472000
C        1.95145900      -0.53694100       0.60297100
N        1.80460600       0.31401500       1.52124400
C       -0.79449200       0.68225000       2.10229500
O       -1.36027600      -0.31213000       1.75435800
H       -0.67578900       0.99174200      -3.39557300
H       -0.20744000      -0.80916400      -3.31128000
H       -0.58050200       1.51018200       1.39960800
H       -1.53283200       0.89668400      -1.12332000
H       -1.46117400      -0.94200600       0.00466700
H        1.06478800      -0.98706500       0.15530500
H        2.91797000      -0.86855500       0.21003900
H        2.70628600       0.65506300       1.85189600
H       -0.45387700       0.82764700       3.14533600
