17
Extracted from Q-Chem output
C       2.106240      0.071377     -0.261898
C       0.724313      0.111930      0.382038
C      -0.055456     -0.987744      0.795712
C      -1.421044     -0.987013      0.247670
C      -1.451726      0.164286     -0.754098
C      -0.282213      1.098230     -0.318339
O      -0.519753      1.947853      0.667254
H       2.493521      1.087177     -0.326732
H       2.030800     -0.341150     -1.268239
H       2.800729     -0.536687      0.317869
H       0.210044     -1.612089      1.645846
H      -2.116555     -0.847293      1.085728
H      -1.681259     -1.967559     -0.171320
H      -1.282967     -0.205174     -1.768893
H      -2.394875      0.708915     -0.743394
H       0.190062      1.542130     -1.220041
H       0.857761      0.605176      1.402465
