14
smiles: [C:2]1([H:8])=[C:6]([H:14])[C:5]([H:13])=[C:4]([H:11])[C:3]1([H:9])[H:10].[O:1]([H:7])[H:12]
O        0.18896100      -0.85939300       2.43517900
C        0.87116700      -0.52413400      -0.89456900
C       -0.60575600      -0.76720400      -0.84918300
C       -1.14864000       0.54017600      -0.36109600
C       -0.13631300       1.39272800      -0.15998100
C        1.12650100       0.72727100      -0.49360800
H        0.90752600      -0.84587500       1.80184900
H        1.59643900      -1.26315100      -1.20473800
H       -1.00725300      -1.03691300      -1.83274800
H       -0.86346800      -1.59274700      -0.17576800
H       -2.19972700       0.73717000      -0.20279600
H       -0.41074000      -0.16686200       2.15511800
H       -0.22055800       2.41177800       0.19335100
H        2.10253600       1.18846700      -0.42241300
