14
Extracted from Q-Chem output
O       0.401075     -0.978988      1.487095
C       0.786876     -0.639154     -0.405323
C      -0.667031     -0.811534     -0.685515
C      -1.153805      0.434173      0.064018
C      -0.116733      1.383038     -0.131931
C       1.074189      0.745684     -0.427727
H       1.089390     -0.472475      1.922572
H       1.513665     -1.424392     -0.562678
H      -0.845801     -0.708677     -1.762327
H      -1.067953     -1.759078     -0.332840
H      -2.197434      0.723819      0.073242
H      -0.541383     -0.157401      1.145016
H      -0.221140      2.446770      0.047179
H       2.058480      1.188626     -0.438349
