19
Extracted from Q-Chem output
C       2.195809     -0.030711     -1.658575
O       1.455300      0.586389     -0.638956
C       0.620944     -0.470718      0.730640
C      -0.678382     -0.141077      0.297014
C      -1.541651     -1.179689     -0.386802
C      -1.431979      0.936785      1.054458
O      -0.598061      1.970575      1.534246
H       1.711657     -0.950913     -2.020531
H       2.305882      0.649282     -2.508374
H       3.198133     -0.287990     -1.303818
H       1.063739     -1.425985      0.468728
H       1.087176      0.064045      1.547690
H       0.185350      0.453908     -0.599406
H      -2.239619     -0.712462     -1.085546
H      -2.139053     -1.753397      0.329663
H      -0.938781     -1.889769     -0.956050
H      -2.225345      1.335306      0.407300
H      -1.925587      0.524339      1.940871
H      -0.079953      2.308331      0.798148
