16
Extracted from Q-Chem output
O      -1.870081      1.051703     -1.087062
C      -1.772403      0.064557     -0.095437
C      -0.625947     -0.870774     -0.289563
C       1.026318     -0.401577      1.574863
C       1.615568      0.539276      0.703413
O       0.775747      0.452887     -0.700546
H      -0.983714      1.422013     -1.177682
H      -1.746281      0.498023      0.909066
H      -2.685670     -0.541683     -0.163182
H      -0.495636     -1.208894     -1.312201
H      -0.534091     -1.664793      0.431066
H       1.520175     -1.351322      1.743239
H       0.361950     -0.063127      2.360578
H       2.629514      0.337543      0.359335
H       1.474045      1.590889      0.938186
H       1.345400      0.190494     -1.440506
