12
Extracted from Q-Chem output
O      -1.149359      1.961771     -0.864937
C      -0.670818      0.968764     -0.427928
C      -1.010564     -0.032211      0.622391
C      -0.173150     -1.054734     -0.148652
N       1.144132     -1.122021      0.021126
C       1.711656      0.066302      0.151313
O       1.096286      1.151138     -0.015296
H      -0.682121      0.178306      1.638331
H      -2.074134     -0.265385      0.594918
H      -0.288192      0.022712     -1.268027
H      -0.664362     -1.910981     -0.606078
H       2.788879      0.106424      0.316226
