10
Extracted from Q-Chem output
O       0.561017      1.674873     -0.865534
C       1.121182      0.835577     -0.226848
C       0.657417     -0.591692     -0.067770
O      -0.511690     -0.898017     -0.824996
C      -1.709141     -0.516476     -0.454483
O      -1.626677      0.124479      0.705852
H       2.068144      1.049390      0.312517
H       1.440665     -1.252618     -0.445090
H       0.520175     -0.800420      0.996235
H      -2.519793      0.390878      0.937744
