11
Extracted from Q-Chem output
C      -1.328408      0.707432      0.289006
O      -0.900723     -0.439130     -0.408558
C       0.352771     -0.895176      0.011517
C       1.492725     -0.053390     -0.528288
O       2.607397     -0.083271     -0.089829
H      -1.437815      0.500017      1.360652
H      -0.631695      1.546656      0.166638
H      -2.295628      0.994029     -0.119779
H       0.482221     -1.905805     -0.387711
H       0.436053     -0.955073      1.104600
H       1.223102      0.583709     -1.398247
