11
Extracted from Q-Chem output
C      -1.669726      0.728880      0.474870
O      -0.667968      0.195714     -0.408674
C       0.489209     -0.104828      0.049827
C       1.564505     -0.709841     -0.725442
O       2.722724     -0.183098     -0.461932
H      -2.418074     -0.043855      0.639438
H      -1.217891      1.033670      1.418900
H      -2.114844      1.582847     -0.028890
H       1.342527     -1.768685     -0.272851
H       0.728860      0.167962      1.081207
H       1.261395     -0.872903     -1.783401
