13
Extracted from Q-Chem output
N       2.438033      0.116388      0.157498
C       2.221626     -1.035667      0.008800
C       0.687559     -0.271798     -0.408893
C      -0.436334     -0.954782      0.364192
C      -1.289481      0.302511      0.080144
C       0.028222      1.084537     -0.115527
H       0.689546     -0.497568     -1.470605
H      -0.758555     -1.928021     -0.002356
H      -0.190283     -1.026842      1.423072
H      -1.855883      0.212600     -0.847057
H      -1.954826      0.639567      0.872738
H       0.379661      1.501482      0.825747
H       0.096428      1.839673     -0.896183
