10
Extracted from Q-Chem output
C      -0.796775     -0.670540     -0.082175
C       0.473299      0.031638      0.236869
C       1.656143     -0.687942     -0.238369
N       2.562878     -1.282651     -0.609366
C       0.179385      1.496878     -0.184443
N      -0.918051      1.894011      0.086415
H      -1.539052      1.057861      0.471958
H      -0.737691     -1.753839     -0.152616
H      -1.462911     -0.242123     -0.813412
H       0.621125      0.243114      1.296898
