18
smiles: [C:1]([C:2]([C:3](=[O+:4][C-:5]([C:6]([H:16])([H:17])[H:18])[H:14])[H:12])([H:10])[H:11])([H:7])([H:8])[H:9].[H:13][H:15]
C        2.49836100      -0.01939400       0.24761500
C        1.56111000      -1.06138200      -0.37476100
C        0.11371900      -0.75472600      -0.22096300
O       -0.41851800       0.03724200      -1.10916600
C       -1.62587500       0.51365300      -1.14166200
C       -2.56864400       0.14981500      -0.07885200
H        3.54596900      -0.29962900       0.11358800
H        2.30889500       0.08536100       1.31797700
H        2.34763700       0.95811200      -0.21459000
H        1.75370300      -2.03770400       0.07886200
H        1.79191300      -1.16726100      -1.43927000
H       -0.47105500      -1.02246900       0.64806400
H       -0.05215700       1.72366800       1.07259400
H       -1.83569600       1.11266600      -2.01182200
H       -0.49317400       2.10659500       0.61082900
H       -3.54177400       0.60640000      -0.24809200
H       -2.20197000       0.46217300       0.91301700
H       -2.69642500      -0.94488700      -0.01719100
