15
Extracted from Q-Chem output
O       0.642598     -2.228825      1.533887
C       0.485771     -1.298727      0.767058
C      -0.707201     -1.135813     -0.125791
C      -1.538766      0.009547     -0.110343
C       0.362194      1.795960     -0.023670
C       1.256908      0.845715     -0.404914
C       1.442471     -0.438928      0.147877
H      -0.763831     -1.816423     -0.967918
H      -1.916083     -1.177242      0.343575
H      -2.133491      0.285325     -0.973653
H      -1.667493      0.574364      0.797109
H       0.272169      2.717213     -0.585825
H      -0.074249      1.795045      0.963451
H       1.896938      1.082875     -1.253238
H       2.386741     -0.938858     -0.048496
