16
Extracted from Q-Chem output
C       0.740035      1.121762      0.592381
C       0.292783     -0.115989     -0.105906
C       1.328759     -1.156405     -0.465978
C      -0.917591     -0.713866      0.659171
O      -1.782927      0.363075      0.881069
C      -1.464101      1.009763     -1.144741
N      -0.477836      0.405752     -1.355397
H      -1.070697      1.047364      1.173849
H       0.720961      2.021718     -0.011793
H       1.720550      1.007984      1.055051
H       1.869927     -1.426913      0.441740
H       0.883248     -2.062336     -0.884371
H       2.047072     -0.749998     -1.176575
H      -1.446867     -1.497639      0.114012
H      -0.526796     -1.106485      1.600499
H      -2.331856      1.599121     -1.360934
