13
Extracted from Q-Chem output
N      -2.396252     -0.723203      0.648251
C      -1.739548      0.277001      0.172691
O      -1.919850      1.463494     -0.166112
C      -0.300586      0.013379     -0.166680
O       0.613659      0.503780      0.625725
C       1.923325      0.586727      0.174029
N       2.292442     -0.022767     -0.844038
H      -3.375109     -0.524506      0.813208
H      -1.012440     -1.651974      0.416460
H      -0.008363     -0.126155     -1.206274
H      -0.228091     -1.699406      0.158101
H       2.486991      1.216430      0.857249
H       3.273010      0.132115     -1.047931
