16
Extracted from Q-Chem output
N       1.814305      1.009892      0.848127
C       1.065924      0.244000      0.303869
C       0.948051     -1.181246     -0.115254
C      -0.570653     -1.333048     -0.167276
C      -0.944560     -0.070864      0.589018
C      -0.582270      1.372988     -0.760955
O       0.340586      0.999383     -1.539377
H       1.632323      1.970236      1.089127
H       1.494704     -1.369207     -1.036265
H       1.400296     -1.760245      0.694535
H      -0.929836     -2.264595      0.273214
H      -0.917349     -1.283383     -1.198655
H      -1.990601      0.237847      0.559483
H      -0.674946     -0.139903      1.647686
H      -0.414107      2.180841     -0.022270
H      -1.615973      1.389595     -1.146130
