16
Extracted from Q-Chem output
C      -1.820373     -0.558691      0.407396
C      -0.663283      0.207245     -0.136052
O      -1.018164      1.951598      0.551653
C       0.601398      0.195088      0.492380
C       1.303614     -0.866473      1.246696
C       1.937604     -0.231200      0.019629
H      -1.804322     -0.554374      1.496299
H      -1.715339     -1.597349      0.074322
H      -2.775717     -0.175876      0.054223
H      -0.720132      0.473198     -1.189365
H      -0.934092      2.641150     -0.117364
H       0.055750      1.470582      0.834838
H       1.723892     -0.633145      2.218105
H       0.975362     -1.896925      1.145119
H       2.013653     -0.856324     -0.864849
H       2.784395      0.429108      0.167844
