9
Extracted from Q-Chem output
O       2.083811     -0.752895     -0.044498
C       1.153480     -0.102019     -0.212538
C       0.299312      0.953213      0.056734
C      -0.945331     -0.686328      0.098714
O      -0.370582     -1.128952     -0.937550
H      -0.316005      1.290791     -0.760884
H       0.743195      1.730810      0.676481
H      -1.935177     -0.214572      0.029899
H      -0.712704     -1.090048      1.093642
