17
Extracted from Q-Chem output
O       2.856302     -0.609578      0.370610
C       1.477414     -0.816885      0.555076
C       0.696633     -0.423966     -0.691572
C      -0.815520     -0.647232     -0.574809
C      -1.458655      0.229893      0.458157
C      -2.150865      1.325713      0.177339
O       0.998477      0.921162     -1.032478
H       2.947465      0.250001     -0.053121
H       1.111258     -0.245126      1.420644
H       1.333835     -1.878733      0.770090
H       1.075177     -1.020105     -1.526095
H      -0.996701     -1.700622     -0.342539
H      -1.259389     -0.446648     -1.552389
H       0.451299      1.494858     -0.484704
H      -1.317393     -0.046517      1.499915
H      -2.580247      1.941660      0.958121
H      -2.329107      1.633251     -0.848457
