17
Extracted from Q-Chem output
O       2.883275     -0.303423     -0.220365
C       1.670510     -0.929087      0.117501
C       0.483446     -0.209717     -0.495148
C      -0.890816     -0.870026     -0.057327
C      -1.621001      0.310407      0.518094
C      -1.499224      1.424672     -0.329268
O       0.485267      1.125247     -0.053681
H       2.727003      0.641891     -0.123900
H       1.531291     -0.962475      1.209222
H       1.719101     -1.958133     -0.248794
H       0.583996     -0.236068     -1.587179
H      -0.741881     -1.656602      0.685544
H      -1.383736     -1.316408     -0.922990
H      -0.499976      0.884433      0.871638
H      -2.326062      0.278946      1.336909
H      -1.791983      2.409202      0.021564
H      -1.318498      1.349125     -1.396018
