14
Extracted from Q-Chem output
O       1.913138     -0.938404     -0.368103
C       1.599496      0.400294     -0.681018
C       0.460820      0.942788      0.179329
C      -0.820639      0.197195     -0.044177
C      -1.360921     -0.614597      0.858031
O      -2.500530     -1.334305      0.726091
H       1.090441     -1.436440     -0.364540
H       1.342124      0.503026     -1.745089
H       2.509508      0.977090     -0.506932
H       0.752999      0.872394      1.230636
H      -1.310604      0.318905     -1.009777
H       0.323956      2.004885     -0.047684
H      -0.914205     -0.768768      1.834632
H      -2.886055     -1.171490     -0.139001
