14
Extracted from Q-Chem output
O       1.728403     -1.232974     -0.260213
C       1.198081     -0.001343     -0.672971
C       0.372327      0.646951      0.425171
C      -1.412051      1.152289      0.337101
C      -0.907151     -0.130507      0.809259
O      -1.097559     -1.338243      0.097981
H       0.977742     -1.822074     -0.126135
H       0.587905     -0.103809     -1.578425
H       2.044028      0.641791     -0.919559
H       0.928980      0.956185      1.305319
H      -1.607518      1.045473     -0.746757
H      -0.040574      1.684412      0.078221
H      -0.984802     -0.349435      1.869647
H      -1.681067     -1.175001     -0.645069
