16
smiles: [C:1]([C:2]([C:3](=[C:6]([H:15])[H:16])[H:12])([H:10])[H:11])([H:7])([H:8])[H:9].[C:4](=[O:5])([H:13])[H:14]
C        2.31617400       0.55285800      -0.03082600
C        0.83024300       0.34184700      -0.31633500
C        0.08673900      -0.17461500       0.87714300
C       -2.32416500      -1.04420500      -1.16388900
O       -1.74813000      -0.87310500      -2.19774400
C       -0.94127100       0.42419800       1.45805900
H        2.78844000      -0.37550100       0.29905900
H        2.46016100       1.29519600       0.75664600
H        2.84316800       0.89736800      -0.92220900
H        0.72206500      -0.37388600      -1.13851000
H        0.37574700       1.27702900      -0.65403100
H        0.44846100      -1.11600700       1.28800900
H       -3.04792200      -0.30616600      -0.76786600
H       -2.16478000      -1.94976200      -0.54744700
H       -1.43052200      -0.00264000       2.32517200
H       -1.33345600       1.36497700       1.08477100
