10
smiles: [H:6][H:8].[N-:1]=[C:2]1[C+:3]([H:7])[C:4]([H:9])([H:10])[O:5]1
N        1.78416500      -0.06052900       0.84308500
C        0.74237600       0.53403900       0.51267300
C       -0.40109400      -0.19659500       0.15421200
C       -1.19482900       0.83910800       0.87113900
O        0.00486000       1.62596600       1.05956800
H        1.75529000      -1.79688800      -1.30129700
H       -0.55972900      -1.18928700      -0.23842700
H        1.46585200      -2.12814200      -1.90202500
H       -1.60524900       0.56610000       1.84744800
H       -1.96729400       1.30966400       0.25437000
