17
Extracted from Q-Chem output
C      -1.569792     -0.498088     -0.379357
C      -0.756851     -0.162242      0.681672
C       0.653116     -0.712237      0.816440
O       0.708433     -2.077970      0.457378
C       1.412291      0.242711     -0.099814
C       0.452983      1.417441     -0.021369
O       0.012003      2.001266     -1.039658
H      -1.594373      0.605955     -1.449075
H      -2.644807     -0.413729     -0.274367
H      -1.234984     -1.239075     -1.097440
H      -1.231676      0.228775      1.572884
H       0.972701     -0.583523      1.857537
H       1.622668     -2.367288      0.484135
H       2.441203      0.479117      0.183530
H       1.403217     -0.139449     -1.122870
H       0.382694      1.938959      0.940080
H      -1.027876      1.262255     -1.534734
