13
Extracted from Q-Chem output
N      -0.886086      0.841260      0.583967
C      -0.964933      0.378144     -0.822626
O      -0.559776     -0.988102     -0.819805
C       0.408968     -1.290046      0.172856
C       1.397730     -0.065241      0.544092
C       0.481444      0.969252      0.057721
N       0.283431      1.092808     -1.219224
H      -1.290750      1.769479      0.632139
H      -1.883068      0.464838     -1.403807
H       0.997491     -2.119045     -0.215432
H      -0.095440     -1.578424      1.094441
H       1.598526     -0.079495      1.613199
H       2.309772     -0.105426     -0.046257
