10
Extracted from Q-Chem output
N      -1.290252     -0.764836     -0.424293
C      -0.440241      0.104712      0.375246
C       1.009438     -0.121019      0.225257
C       2.175044     -0.350819      0.089437
C      -0.763430      1.513093      0.076628
N      -1.014541      2.606191     -0.156853
H      -1.073086     -0.660469     -1.407367
H      -1.117982     -1.729116     -0.172170
H      -0.699818     -0.052013      1.426816
H       3.214868     -0.545725     -0.032702
