11
Extracted from Q-Chem output
O       2.441525     -0.228183     -0.394956
C       1.136182      0.024116     -0.088111
C       0.171337     -0.834057     -0.397841
N      -1.180090     -0.530011     -0.251477
C      -1.536811      0.664116      0.327781
C      -0.840366      1.725823      0.680528
H       3.007087      0.299155      0.169765
H       0.393895     -1.793381     -0.844887
H      -1.817441     -1.297770     -0.146817
H      -2.595577      0.857228      0.521236
H       0.927303      0.993094      0.382640
