11
Extracted from Q-Chem output
O       2.238364     -0.202836     -0.230168
C       0.885493     -0.108316     -0.104497
C       0.010578     -1.084282     -0.497306
N      -1.253013     -0.626463     -0.211544
C      -1.186718      0.606936      0.348806
C       0.134669      0.968316      0.432692
H       2.637909      0.596089      0.114644
H       0.188258     -2.045791     -0.947211
H      -2.097414     -1.136257     -0.385277
H      -2.075620      1.137813      0.647548
H       0.517493      1.894792      0.832311
