13
Extracted from Q-Chem output
C      -1.367620     -0.381124     -0.246323
C      -0.672379      0.727039     -0.720200
C       1.289914      0.805079      0.260240
C       1.507503     -0.534549      0.083917
O       0.771890     -1.410989      0.672563
H      -2.080303     -0.235159      0.559109
H      -0.322530     -1.061590      0.403625
H      -1.611403     -1.169587     -0.951167
H      -0.289672      0.737425     -1.732541
H      -0.848373      1.709048     -0.302031
H       1.886390      1.524845     -0.286543
H       0.820302      1.147280      1.172296
H       2.171660     -0.882794     -0.714167
