11
Extracted from Q-Chem output
N       2.729845     -0.568222      1.331050
C       1.996644     -0.470320      0.451452
C       1.074053     -0.349604     -0.660106
O       0.031537     -1.043290     -0.698724
C      -1.452011     -0.259645      0.044605
C      -0.874845      1.062720      0.267512
N      -1.761298      1.726050      0.728362
H       1.438013      0.177303     -1.544183
H       0.254635      1.190149     -0.011258
H      -2.165222     -0.366162     -0.762485
H      -1.622484     -0.877786      0.917416
