13
Extracted from Q-Chem output
C      -1.999759     -0.547204     -0.071065
C      -0.784051     -0.909723     -0.447511
C       0.281929      0.051911     -0.872254
N       1.470764     -0.166768     -0.045830
C       1.566789      0.708432      1.061475
O       2.304213      1.033518     -0.076254
H       0.725412      1.363930      1.285497
H      -2.745323     -1.279101      0.214237
H      -2.298657      0.495768     -0.045396
H      -0.509310     -1.960591     -0.461448
H       0.576898     -0.141926     -1.906617
H      -0.069468      1.087861     -0.804783
H       2.130749      0.349797      1.918528
