13
Extracted from Q-Chem output
C      -1.406473     -0.252753      0.358187
C      -0.521712     -0.865867     -0.501025
C       0.345059      0.012513     -1.337828
N       1.146132     -0.351765     -0.225345
C       1.107796      0.555589      0.926140
O       1.948852      1.440435      0.537549
H      -0.003952      0.880587      1.091467
H      -1.936701     -0.828614      1.108786
H      -1.770468      0.749239      0.175457
H      -0.437550     -1.942214     -0.538674
H       0.712875     -0.365548     -2.286343
H       0.008848      1.047825     -1.377716
H       1.344576     -0.032381      1.834144
