13
Extracted from Q-Chem output
C       0.551196      1.220892     -0.074308
C       1.650841      0.775128      0.750578
C      -0.338538     -1.717904     -0.609500
C      -0.848436     -0.923654      0.552282
C      -0.543971      0.233863     -0.431372
N      -0.075847     -0.773676     -1.428686
H       0.755796      1.909673     -0.903102
H       0.208157      1.876528      0.777363
H       2.424766      1.561650      0.693224
H      -0.193318     -2.781384     -0.790712
H      -0.219661     -0.946955      1.442031
H      -1.896912     -1.068015      0.816523
H      -1.428918      0.758521     -0.799174
