13
Extracted from Q-Chem output
C       0.410678      1.340182      0.166592
C       1.553285      0.389615      0.413253
C       0.061065     -1.491229     -0.347335
C      -0.952533     -0.828028      0.529778
C      -0.615956      0.365670     -0.401032
N       0.209003     -0.576770     -1.241744
H       0.589249      2.128995     -0.570546
H       0.053969      1.783628      1.100812
H       2.319222      0.536709     -0.363962
H       0.546991     -2.463696     -0.339333
H      -0.731721     -0.735143      1.590880
H      -1.963184     -1.211977      0.382296
H      -1.443698      0.850407     -0.919222
