13
Extracted from Q-Chem output
C      -1.568123     -0.054790      0.465918
C      -0.391568     -0.897474      0.298048
C       0.436784     -0.292435     -0.868089
C       1.396839      0.176657      0.196313
N       0.199830      0.220886      1.096584
C      -0.436344      0.950050     -1.045157
H      -2.278007      0.191414     -0.301974
H      -1.904678      0.065008      1.489495
H      -0.291026     -1.920688      0.665425
H       0.709307     -0.824538     -1.782737
H       1.920109      1.121900      0.040732
H       2.077049     -0.574908      0.627835
H       0.157350      1.854131     -0.842321
