12
Extracted from Q-Chem output
O       2.760305      0.591443     -1.370940
C       1.943602      0.526182     -0.555718
C       0.998831      0.440473      0.349782
C      -0.403898      0.989023      0.116697
N      -1.503932      0.143609      0.533742
C      -1.536996     -1.089529      0.281774
O      -0.630100     -1.863086     -0.340097
H       0.185575     -1.354506     -0.463433
H       1.297721      0.105509      1.335545
H      -0.523610      1.237253     -0.943773
H      -0.500155      1.927094      0.665096
H      -2.403609     -1.674810      0.580020
