16
Extracted from Q-Chem output
C       1.918334     -0.255711      0.147026
C       0.526881      0.085643     -0.359027
C      -0.533400     -0.995578     -0.139333
C      -1.840223     -0.191389     -0.164227
C      -1.603319      1.196763      0.290554
C      -0.130558      1.295789      0.326730
H       1.898775     -0.467632      1.219995
H       2.614613      0.569544     -0.017248
H       2.323191     -1.135401     -0.357695
H       0.585589      0.301068     -1.433278
H      -0.496279     -1.796295     -0.879540
H      -0.399905     -1.455133      0.846384
H      -2.732432     -0.666462      0.245259
H      -2.108133      0.057837     -1.212252
H      -0.023986      1.189301      1.428833
H       0.279618      2.281501      0.100596
