11
Extracted from Q-Chem output
C      -1.423934      0.464710      0.119241
C       0.040530     -0.749988     -0.742498
O       0.921243     -0.012491     -1.257147
C       1.751778      0.559138      0.254521
N       1.093896      0.342836      1.218917
C      -0.423024     -0.391492      0.580944
H      -1.204917      1.227671     -0.612052
H      -2.417346      0.436807      0.547197
H      -0.295048     -1.661343     -1.231776
H       2.663681      0.953833     -0.153789
H      -0.711308     -1.168093      1.279510
