11
Extracted from Q-Chem output
O       1.509371     -0.247134      0.748582
C       1.265048     -0.844861     -0.397786
C       1.286118      1.152464      0.212229
C      -0.073592      1.299152      0.159777
N      -1.052808      0.320469      0.329229
C      -0.943587     -0.950152     -0.039113
N       0.122074     -1.436366     -0.632510
H       2.077222     -0.955880     -1.113069
H      -0.481072      2.288658     -0.010277
H      -1.980788      0.633024      0.572463
H      -1.837098     -1.558259      0.045636
