13
Extracted from Q-Chem output
N       1.786962     -0.886279     -0.103853
C       0.943214     -0.178113     -0.865567
O       1.268492      1.178561     -0.817630
C       0.470663      1.207149      0.348787
C      -0.331528     -0.010292     -0.139693
C      -1.757588     -0.127750     -0.488456
N      -1.127159     -0.966073      0.530515
H       2.748110     -0.594984     -0.284641
H       1.489186     -0.044469      0.841333
H      -0.014246      2.175196      0.514996
H      -2.001212     -0.554566     -1.454601
H      -2.459529      0.603417     -0.107080
H      -0.920734     -1.906142      0.212469
