10
smiles: [C:2](=[C:3]([C:4]#[N:5])[H:10])([H:7])[H:8].[O:1]([H:6])[H:9]
O       -1.79988200       0.95952300       0.94523800
C       -0.00662200      -1.31746300      -0.70740100
C        1.11578300      -0.61140400      -0.69221000
C        1.19545900       0.69166600      -0.10198800
N        1.27530800       1.73712000       0.36687400
H       -2.02709000       0.97506700       1.87586400
H       -0.92185900      -0.93748700      -0.27159200
H       -0.03309500      -2.29876400      -1.16281900
H       -1.04679200       1.54503200       0.85704900
H        2.03293400      -0.98927100      -1.12803400
