14
Extracted from Q-Chem output
C      -1.718228     -0.627537      0.224180
C      -0.741788      0.413869     -0.257753
O      -0.198317      1.223722      0.801564
C       1.130645      0.893866      0.398791
C       1.612704     -0.424036      0.788533
C       0.657231     -0.020250     -0.716250
H      -2.563951     -0.143494      0.714266
H      -1.241330     -1.295249      0.942044
H      -2.096419     -1.208925     -0.619904
H      -1.193316      1.058279     -1.019430
H       1.792181      1.735052      0.224655
H       2.607873     -0.526758      0.328796
H       0.852286     -1.091710     -0.180216
H       1.053016      0.025200     -1.720887
