14
smiles: [C:1]1([H:7])([H:8])[N:2]([H:9])/[C:3]1=[C:4]1/[C:5]([H:12])([H:13])[N:6]1[H:14].[H:10][H:11]
C        1.93026600      -0.98887500      -0.06489500
N        1.87236800       0.04471400       1.00562700
C        0.68857100      -0.44095100       0.42769500
C       -0.60710400      -0.33106000       0.43482700
C       -1.92893300      -0.66505600      -0.03982800
N       -1.68588500       0.34522700       1.02721100
H        2.27996700      -1.95831200       0.27115100
H        2.26851100      -0.68958700      -1.05216200
H        2.13032700       0.96507500       0.66687900
H       -0.38842800       2.42063900      -1.50223700
H       -0.12775800       1.78078100      -1.22469600
H       -2.42901200      -1.56316100       0.30397900
H       -2.22729200      -0.31485700      -1.02321800
H       -1.79017100       1.29530000       0.68797500
