15
Extracted from Q-Chem output
C       1.870606      0.418417      0.120346
C       0.584550     -0.390739     -0.975944
O      -0.172894      0.746509     -1.361771
C      -0.965034      0.803335     -0.189727
C      -1.752118     -0.514688     -0.233399
C      -0.373288     -1.130856     -0.010094
C       0.070528      0.069697      0.717049
H       1.850061      1.298160      0.772632
H       2.418799     -0.388372      0.602559
H       2.411265      0.730325     -0.767185
H      -1.416266      1.776857     -0.015273
H      -2.403614     -0.644986      0.630933
H      -2.281945     -0.726068     -1.163915
H      -0.145130     -2.159382      0.236663
H       0.306763      0.152130      1.770138
