10
Extracted from Q-Chem output
N       1.869616     -0.102750     -0.019616
C       0.544164      0.075166     -0.014265
N      -0.252993     -0.987175      0.080219
C      -1.528329     -0.662466      0.074562
N      -2.028495      0.566657     -0.015176
N      -1.171258      1.559518     -0.106417
N       0.105034      1.350413     -0.107557
H       2.245256     -1.029836      0.047046
H       2.471436      0.696252     -0.090372
H      -2.254431     -1.465779      0.151576
