10
Extracted from Q-Chem output
N       1.744649     -0.067551     -0.026200
C       0.448766      0.221220      0.328605
N      -0.379595     -0.821652      0.793229
C      -1.478619     -0.733548      0.111010
N      -1.681175      0.371978     -0.705710
N      -0.597224      1.044272     -0.429231
N       0.041288      1.567247      0.570824
H       1.878537     -0.880426     -0.603759
H       2.324131      0.721810     -0.252569
H      -2.303780     -1.426882      0.212524
