17
Extracted from Q-Chem output
C      -1.291482     -1.260311      0.095345
C      -0.351888     -0.696407     -0.936573
C       0.047852      0.746343     -0.964014
C      -0.459239      1.748018      0.039002
C       1.072022     -0.306984     -0.583600
C       1.540005     -0.411762      0.771750
C       1.935878     -0.501751      1.899967
H      -2.329739     -1.062241     -0.179817
H      -1.164284     -2.341344      0.178112
H      -1.117059     -0.837334      1.084132
H      -0.439938     -1.163610     -1.911544
H       0.200743      1.158223     -1.955790
H       0.193941      2.622029      0.071073
H      -1.462351      2.086955     -0.229020
H      -0.498028      1.334799      1.046291
H       1.830107     -0.531373     -1.324080
H       2.293459     -0.583250      2.898764
