14
Extracted from Q-Chem output
C      -2.430924      0.589456     -0.512269
C      -1.685811     -0.300923      0.122271
C      -0.374189     -0.829669     -0.382663
C       0.750056     -0.596055      0.597689
C       1.804621      0.118595      0.338017
C       2.853999      0.836317      0.063969
H      -2.123366      1.006176     -1.465796
H       2.868758      1.902159      0.261489
H      -3.371849      0.936972     -0.103510
H      -2.023507     -0.691457      1.080057
H      -0.128576     -0.370381     -1.341310
H      -0.467595     -1.908448     -0.553438
H       0.661032     -1.049476      1.581886
H       3.743229      0.389754     -0.365850
