15
Extracted from Q-Chem output
O       0.570572     -2.602112      0.250337
C       0.240879     -1.282335      0.188282
C      -0.984813     -0.800112     -0.022813
C      -1.217021      0.687700      0.004062
C       0.009150      1.457935     -0.481502
C       1.279995      0.903475      0.099397
C       1.382625     -0.388762      0.396112
H      -1.832108     -1.469142     -0.137321
H      -0.222359     -3.130391      0.132302
H      -2.080664      0.948747     -0.610622
H      -1.463242      0.999183      1.028647
H       0.079008      1.389277     -1.575864
H      -0.091928      2.518971     -0.245450
H       2.132493      1.562018      0.222751
H       2.299374     -0.824576      0.774009
