13
Extracted from Q-Chem output
N      -1.956103     -1.115805     -0.674264
C      -0.400779      0.665795     -0.178637
O      -1.248125      1.476837     -0.454075
C      -0.657516     -0.816840     -0.116813
O       2.078953     -0.739057      0.727126
C       2.005614      0.442597      0.527941
N       0.887876      1.129745      0.115796
H      -2.591979     -0.343972     -0.525227
H      -2.346623     -1.952327     -0.269060
H       0.137962     -1.331731     -0.660669
H      -0.520739     -1.107904      0.934813
H       2.862994      1.123906      0.665634
H       0.969601      2.132052      0.030863
