13
Extracted from Q-Chem output
N      -1.494829     -0.520502     -0.779045
C      -0.602843      0.386539      0.049077
O      -1.179496      1.371743      0.572845
C      -0.334484     -0.893794      0.759375
O       1.548017     -0.328362      1.270756
C       1.716088      0.430407      0.306935
N       0.745230      0.680397     -0.576276
H      -2.426778     -0.133908     -0.795921
H      -1.155617     -0.869949     -1.662101
H       0.153256     -1.718478      0.264736
H      -0.889176     -1.090643      1.669741
H       2.686917      0.912923      0.149345
H       0.818757      1.520321     -1.131083
