14
Extracted from Q-Chem output
C       1.533601      0.730070      0.342642
C       0.538587     -0.286477      0.248816
O      -0.139805     -0.634813      1.408057
C      -1.437905     -0.534077      0.781564
C      -0.761226     -0.374685     -0.588164
O      -1.082950      0.681289     -1.426046
H       1.346678      1.554464      1.038989
H       2.578971      0.479880      0.254770
H       1.614103      0.047432     -1.100038
H       1.390989     -0.849964     -0.822682
H      -1.962962      0.361223      1.121691
H      -2.047332     -1.423075      0.946117
H      -0.838012     -1.284110     -1.183024
H      -0.693229      1.486194     -1.072891
