12
Extracted from Q-Chem output
O       2.924669      0.120119     -0.236608
C       1.727487      0.019443     -0.374637
C       0.763137      0.042528      0.694371
C      -0.679981      1.082429     -0.393349
N      -0.583513     -0.023046      0.361765
C      -1.419251     -1.145014      0.317422
O      -2.452809     -1.151586     -0.279818
H       1.268290     -0.147603     -1.377478
H       1.076948      0.044637      1.733462
H      -1.097829      1.030013     -1.394526
H      -0.467007      2.034256      0.065216
H      -0.998504     -1.994719      0.876348
