19
smiles: [C:1]([O:2][C:4]([H:12])([H:13])[H:14])([H:8])([H:9])[H:10].[C:3]([C:5]([C:6]([O:7][H:19])([H:17])[H:18])([H:15])[H:16])[H:11]
C       -2.09911000      -0.06234400       0.79428800
O       -0.71347100       0.10916500       0.67382900
C        0.03433000      -0.00013900      -1.81947800
C       -0.28846600       1.36132900       1.13758100
C        1.19602600      -0.06013800      -1.18721200
C        1.78116200      -1.31971800      -0.62637400
O        2.04196500      -1.21395600       0.76210900
H       -2.65014200       0.68187400       0.20305800
H       -2.42533600       0.01745800       1.84042900
H       -2.34246100      -1.05757200       0.42420500
H       -0.56792300      -0.88956100      -1.97693800
H        0.79096100       1.41560300       1.00106300
H       -0.51943700       1.49603400       2.20328800
H       -0.75962100       2.18031300       0.57688000
H        1.78234900       0.84197600      -1.03133300
H       -0.35623300       0.93136900      -2.21095300
H        1.12094500      -2.16851900      -0.84550900
H        2.74916500      -1.52540500      -1.08911600
H        1.22161700      -0.97961300       1.20104500
