14
Extracted from Q-Chem output
O       1.096095      2.151759      0.695692
C       0.702429      1.143707      0.200151
C       1.408059     -0.144480     -0.068290
C       0.483372     -1.322509     -0.212389
C      -0.788932     -1.208107      0.253474
C      -1.362076      0.043102      0.542766
N      -0.712558      1.082035     -0.288790
H       2.124823     -0.273366      0.749166
H       2.014772      0.040508     -0.965148
H       0.923158     -2.278500     -0.456706
H      -1.389806     -2.098467      0.413097
H      -2.419074      0.211746      0.675560
H      -0.706095      0.821283     -1.291915
H      -1.125041      2.001165     -0.157228
