11
Extracted from Q-Chem output
N       2.967110      0.292627      0.583619
C       1.969500     -0.116506      0.194459
C       0.686022     -0.630481     -0.273066
C      -0.455260      0.134893      0.370815
C      -1.005201      1.320314     -0.312283
O      -1.767654     -0.307164     -0.068531
H       0.627581     -1.694267     -0.026995
H       0.636432     -0.507888     -1.358365
H      -0.441872      0.055575      1.458117
H      -1.581459      1.878383      0.438563
H      -1.724720     -0.538469     -1.003829
