14
smiles: [C:1]([C:2]([C:3](=[O:4])[C:5](=[O:6])[H:13])([H:10])[H:11])([H:7])([H:8])[H:9].[H:12][H:14]
C       -1.84091800       0.31726900       0.09488900
C       -0.61521200      -0.51531000      -0.22874600
C        0.57951100       0.30117700      -0.64485000
O        0.59941600       1.49710100      -0.71316700
C        1.84732700      -0.51467600      -0.99894900
O        2.85503400      -0.00225900      -1.37860100
H       -1.63175100       1.01758900       0.90350400
H       -2.67242800      -0.32072300       0.39475300
H       -2.15021300       0.90443800      -0.77003700
H       -0.81619500      -1.23579400      -1.03147200
H       -0.30792600      -1.12997100       0.62682800
H        1.22668100       0.33790000       2.55381000
H        1.76066400      -1.61559000      -0.87909300
H        1.22784200       0.97071700       2.16147500
