12
Extracted from Q-Chem output
N       1.531947     -0.134133      0.068944
C       0.277782      0.141128     -0.684705
C      -0.797647     -0.925792     -0.809944
O      -1.738486     -0.007859     -0.177827
C      -0.666581      0.790303      0.184636
N      -0.556425      1.666248      1.093451
H       1.638253      0.680389      0.685366
H       1.499893     -0.965738      0.671723
H       2.350993     -0.200238     -0.526594
H      -1.134533     -1.210316     -1.807996
H      -0.681851     -1.827711     -0.187913
H      -1.423969      1.811221      1.598445
