12
Extracted from Q-Chem output
N       1.621739     -0.201155      0.260101
C       0.341335      0.028778     -0.568411
C      -0.779055     -0.985968     -0.695787
O      -1.707500      0.026957     -0.215695
C      -0.642632      0.836800      0.138963
N      -0.598798      1.830901      0.908163
H       1.563629      0.073085      1.237327
H       2.081245     -1.079860      0.078632
H       1.626033      0.485226     -0.671985
H      -1.047552     -1.324885     -1.696236
H      -0.737310     -1.831788      0.000695
H      -1.515958      2.054802      1.283312
