12
smiles: [C:1]1([H:8])([H:9])/[C:2](=[N:4]/[C:5](=[N:6]/[H:12])[H:11])[O:3]1.[H:7][H:10]
C       -1.55589100       1.07523100       0.54611800
C       -0.29678600       0.46164800       0.27324100
O       -0.23438300       1.55502400       1.03628400
N        0.42674500      -0.41320900      -0.24659400
C        1.81075300      -0.31434300      -0.01877300
N        2.58732100      -1.17267300      -0.51571600
H       -2.43956100      -1.69729800      -1.51768700
H       -2.19748300       0.68281200       1.32665700
H       -2.01533500       1.72808600      -0.18711400
H       -1.71447300      -1.59821300      -1.38012400
H        2.14511100       0.52983400       0.59740200
H        3.54815500      -0.96040100      -0.26015100
