15
Extracted from Q-Chem output
O      -0.363637      0.122015     -1.750304
C      -0.232487     -0.010470      1.254469
C       0.954976     -0.784761      0.823958
C       2.008080      0.278317      0.599102
O       2.267614      0.702199     -0.497258
C      -1.424621     -0.304944      0.469037
C      -1.243414      0.630721     -0.792906
H       0.541701      0.405248     -1.565882
H       1.243875     -1.352515      1.719495
H       0.858229     -1.453620     -0.038798
H       2.484479      0.695321      1.502030
H      -2.343389      0.014944      0.962975
H      -1.521954     -1.325154      0.077863
H      -2.230924      0.681148     -1.251995
H      -0.971655      1.640801     -0.473155
