15
Extracted from Q-Chem output
O      -0.048364      0.127466     -1.303695
C      -0.155425      0.119057      0.211393
C       0.985242     -0.588728      0.839811
C       2.324297      0.067263      0.628434
O       2.534470      0.981298     -0.124198
C      -1.554991     -0.347474      0.312798
C      -1.767613      0.676803     -0.729176
H       0.441835      0.932186     -1.498320
H       0.822490     -0.691541      1.918157
H       1.113728     -1.625857      0.460785
H       3.164759     -0.381360      1.200355
H      -2.015128     -0.086361      1.266527
H      -1.818929     -1.369875      0.002620
H      -2.186404      0.444390     -1.704209
H      -1.817445      1.707653     -0.410773
