11
Extracted from Q-Chem output
C       1.145726     -0.313641      1.226001
N      -0.093810     -0.090883      0.884509
C      -0.864929      0.933543     -0.945018
O       0.386934      0.878804     -1.350183
C      -0.872668     -0.866783      0.175566
O      -1.608072     -0.145888     -0.703691
H       1.015601      0.611213     -0.619422
H       1.668548     -1.222492      0.928745
H       1.591564      0.326625      1.976905
H      -1.429949      1.816865     -1.213420
H      -0.913930     -1.946500      0.116138
