12
smiles: [C+:1]([N:2]([C:3]([O-:4])=[C:5]([H:11])[H:12])[H:9])([H:7])[H:8].[H:6][H:10]
C       -1.78658100      -0.43652100       0.28805700
N       -0.65861200       0.05632800       0.58199800
C        0.63394500      -0.70289800       0.19934900
O        0.40661500      -1.75682700      -0.37940400
C        1.70796200       0.01376300       0.61546100
H       -0.05829200       2.41967000      -1.68562300
H       -2.70621000       0.07290700       0.54624600
H       -1.75331800      -1.39106700      -0.23217000
H       -0.58303700       0.94112900       1.06766100
H        0.45124900       1.92316200      -1.46608200
H        2.70325000      -0.36285100       0.43563700
H        1.59795400       0.95965400       1.12582000
