12
Extracted from Q-Chem output
C       1.965366      0.101327      0.000701
N       0.621607      0.629576     -0.000748
C      -0.480917     -0.164944     -0.000337
O      -0.421844     -1.377962     -0.000443
C      -1.806979      0.561824      0.000468
H       1.892929     -0.984236      0.008438
H       2.515472      0.425506      0.886698
H       2.513081      0.412693     -0.891396
H       0.491743      1.624107     -0.004026
H      -2.362949      0.263195      0.889010
H      -2.377867      0.238007     -0.869430
H      -1.713725      1.648147     -0.015506
