12
Extracted from Q-Chem output
O      -2.119339      1.085047     -0.443648
C      -1.589113     -0.122790      0.030843
C      -0.095603     -0.184833     -0.070376
N       0.584601      0.631958     -0.876238
N       1.968189      0.246737     -0.689703
C       1.898740     -0.742161      0.199233
N       0.665113     -1.082330      0.553063
H      -1.723977      1.282025     -1.296815
H      -2.004698     -0.991351     -0.497618
H      -1.875553     -0.219133      1.078627
H       1.480803      1.344272     -0.423334
H       2.788437     -1.233155      0.565589
