15
Extracted from Q-Chem output
C      -1.718656     -0.274968     -0.051007
C      -0.588158      0.719567     -0.271550
O      -0.331985      1.479264      0.890178
C       0.697270      0.069128     -0.789884
C       2.199106     -0.748761      1.031143
N       1.240833     -0.900982      0.160747
H      -2.614798      0.251722      0.275943
H      -1.953754     -0.821203     -0.967284
H      -1.461090     -1.000793      0.725326
H      -0.896494      1.450236     -1.024091
H      -0.058647      0.884506      1.595059
H       0.509662     -0.428774     -1.745042
H       2.593412      0.276323      0.878976
H       1.453846      0.839432     -0.939149
H       0.768433     -1.796405      0.157985
