15
Extracted from Q-Chem output
C      -1.831336     -0.099204     -0.191438
C      -0.530672      0.688833     -0.110400
O      -0.306455      1.180182      1.186350
C       0.636402     -0.188802     -0.565857
C       2.329569     -0.161436      0.218835
N       1.207433     -0.985403      0.530709
H      -2.652099      0.511201      0.184485
H      -2.057983     -0.388769     -1.220248
H      -1.767840     -1.004312      0.417952
H      -0.594902      1.565907     -0.759411
H      -0.015638      0.425104      1.714402
H       0.421368     -0.813285     -1.431081
H       2.137059      0.778849      0.764278
H       1.537320      0.412211     -0.999223
H       1.378995     -1.927255      0.199777
