8
Extracted from Q-Chem output
C       2.200997      0.557274     -0.136166
C       1.129179      0.119447     -0.448198
C      -0.128803     -0.415532     -0.839658
C      -1.249092     -0.095596     -0.228002
N      -2.298476      0.273813      0.249744
H       3.149656      0.949600      0.143388
H      -2.653741     -0.239887      1.050643
H      -0.184624     -1.121335     -1.659390
