8
Extracted from Q-Chem output
C       2.050070      0.569392     -0.159112
C       0.981188      0.058634     -0.357649
C      -0.266756     -0.552047     -0.603320
C      -1.454529      0.135698     -0.408202
N      -2.483742      0.659272     -0.094789
H       2.996755      1.024868      0.009755
H      -1.514907     -0.291327      0.684367
H      -0.342983     -1.576708     -0.938689
