14
Extracted from Q-Chem output
N       2.219222     -1.177916      1.005718
C       1.045189     -0.947347      0.767217
O      -0.325213      0.897132     -2.416954
C       0.352961      1.208344     -1.192843
C      -0.678420      0.427069     -0.367355
C      -1.203423     -0.016418     -1.748159
C      -0.207414     -0.613023      0.601704
H       2.640202     -1.914904      0.446136
H       0.408741      2.284114     -1.014217
H       1.364529      0.788126     -1.172731
H      -1.384442      1.092775      0.130786
H      -2.253815      0.189827     -1.968114
H      -0.972316     -1.058112     -1.994306
H      -0.936739     -1.144246      1.202632
