15
Extracted from Q-Chem output
O       1.638266     -1.715309      0.630186
C       0.500813     -0.891656      0.565918
C      -0.961330     -0.974965      0.325172
C      -1.156712      0.347692     -0.458452
C      -0.019223      1.324351     -0.044093
C       1.117778      0.458368      0.481706
C       1.533921     -0.682312     -0.394497
H      -1.254917     -1.850230     -0.255196
H      -1.520190     -0.981011      1.263888
H      -1.082093      0.130808     -1.525303
H      -2.140059      0.786689     -0.289731
H       0.268536      1.973316     -0.872933
H      -0.348315      1.974559      0.769319
H       1.794707      0.844090      1.239038
H       1.548127     -0.919246     -1.445024
