9
Extracted from Q-Chem output
O       1.952711      0.077624      0.380943
C       0.658680     -0.064484      0.200303
N       0.243002     -0.646903     -1.008926
O      -1.168138     -1.187982     -0.637185
C      -1.271606      0.037969     -0.208167
C      -0.408102      0.395974      0.898613
H       2.404610     -0.403253     -0.326125
H      -1.966265      0.703020     -0.729537
H      -0.556057      0.965206      1.795244
