9
Extracted from Q-Chem output
O       0.561045      1.918108      0.168863
C       0.252323      0.627330      0.114949
C       0.825863     -0.592528      0.448393
O      -0.223874     -1.381860      0.107179
C      -1.013626     -0.184075     -0.185010
H       1.771343     -0.997962      0.783070
H       1.000755      0.916451     -0.752047
H      -1.392942     -0.202383     -1.205216
H      -1.813658     -0.067255      0.543270
