10
Extracted from Q-Chem output
O      -0.084511      1.966220      0.861148
C      -0.313862      0.911249      0.375901
C      -1.288598     -0.097578      0.014984
C       0.190025     -0.532657      0.176023
O       0.817852     -0.926600     -1.022473
C       1.522523      0.237524     -1.090661
H      -1.607837     -0.123359     -1.021667
H      -2.019262     -0.429856      0.743955
H       0.518707     -1.063303      1.064129
H       2.213067      0.235398     -0.207605
