14
Extracted from Q-Chem output
C       2.287145     -0.470096      0.199465
C       1.030634      0.243640     -0.039734
C      -0.103652     -0.665864     -0.210893
C      -1.484222     -0.126893      0.149398
O      -2.267573     -0.845846      0.714496
C      -1.799669      1.295592     -0.218001
H       2.339044     -1.528102     -0.093060
H       3.174992      0.081835     -0.108270
H       2.296388     -0.442665      1.305688
H      -1.167255      1.964329      0.367796
H      -0.000927     -1.694985      0.163077
H      -0.075335     -0.726003     -1.318789
H      -2.850764      1.497047     -0.024284
H      -1.558675      1.488447     -1.265295
