14
Extracted from Q-Chem output
C       1.753325      0.129244     -0.135020
C       0.569558      0.022771      0.765947
C      -0.372980     -1.116866      0.413070
C      -1.578705     -0.322355     -0.040143
O      -2.727088     -0.655860     -0.082549
C      -1.019772      1.047167     -0.307528
H       1.591853     -0.158061     -1.184665
H       2.244540      1.100931     -0.086562
H       2.456977     -0.603292      0.281907
H      -0.201238      1.115916      0.648102
H      -0.616485     -1.774223      1.248252
H      -0.028207     -1.733333     -0.428743
H      -1.686655      1.889202     -0.122098
H      -0.531258      1.120857     -1.277368
