13
smiles: [C:1](/[C:2](=[N:3]/[H:11])[H:10])([H:7])([H:8])[H:9].[C:4](=[C:5]=[O:6])([H:12])[H:13]
C       -1.68224800      -0.12826000      -0.31971100
C       -1.05610700      -1.13151800       0.59144900
N        0.15784600      -1.46446500       0.48229700
C        2.11594900       0.97333900      -0.73150900
C        1.43880500       1.47158100       0.27002400
O        0.84024500       1.91085100       1.15512400
H       -2.53283600      -0.57203200      -0.84343900
H       -0.95269400       0.22777900      -1.04509100
H       -2.06829900       0.71724900       0.25553300
H       -1.71614200      -1.55892200       1.35776400
H        0.40971600      -2.15698000       1.18428700
H        2.01584300      -0.07493700      -0.96564200
H        2.76004600       1.61837900      -1.30813700
