11
Extracted from Q-Chem output
N      -1.978709     -0.156238     -0.101501
C      -0.575164     -0.124669     -0.027157
C       0.273987     -1.182145     -0.043853
N       1.575876     -0.460641     -0.064044
N       1.443335      0.996727     -0.036707
C       0.164851      1.124697     -0.031051
H      -2.429181      0.354651      0.643794
H      -2.306146     -1.111476     -0.097411
H       2.102234     -0.703842     -0.901934
H       2.142563     -0.740710      0.734819
H      -0.257409      2.123612     -0.028220
