11
Extracted from Q-Chem output
N      -1.896614     -0.291506     -0.171342
C      -0.525260     -0.111558      0.003859
C       0.409241     -1.128607      0.119598
N       1.637650     -0.298654      0.059571
N       1.437720      1.044921      0.085997
C       0.130816      1.146598      0.041128
H      -2.471453      0.366750      0.329515
H      -2.182772     -1.238851      0.019279
H       1.352491     -0.919058     -0.888758
H       2.517816     -0.644610      0.413460
H      -0.321240      2.129355      0.012973
