12
Extracted from Q-Chem output
N       1.806302     -0.126204     -0.534300
C       0.501251     -0.101594      0.003588
C      -0.171501      1.119429      0.643027
C      -1.380005      0.741874      0.226396
C      -0.854000     -0.514222     -0.460578
N      -0.078539     -1.329216      0.494186
H       2.025013     -1.049295     -0.881569
H       1.920494      0.551730     -1.274937
H       0.194309      1.890169      1.309441
H      -2.382774      1.097579      0.421744
H      -1.170035     -0.962058     -1.391628
H      -0.431864     -1.259230      1.442240
