14
Extracted from Q-Chem output
C       1.908656      0.229375     -0.264506
C       1.036089     -0.640294     -1.048020
C      -0.392216     -0.415865     -0.989601
C      -1.285886      0.539463     -0.138929
C      -1.186571     -0.920301      0.193161
N      -0.532041     -0.587902      1.491316
C      -0.699840      0.656404      1.231244
H       1.526642      1.217546      0.023214
H       2.908822      0.299275     -0.694948
H       2.030382     -0.364405      0.659306
H      -0.912250     -0.691520     -1.906330
H      -2.105022      1.077029     -0.593732
H      -1.921443     -1.707754      0.115437
H      -0.392107      1.494212      1.852673
