14
Extracted from Q-Chem output
O       1.521044     -1.944379     -0.812817
C       1.258387     -1.336735      0.188208
C       0.455873      1.476579     -0.001862
C      -0.941058      1.040125     -0.063510
C      -1.047269     -0.366390     -0.630611
C      -0.095500     -0.768600      0.508352
N      -0.053874      0.617538      1.075196
H       1.176107      1.080053     -0.712714
H       2.026949     -1.151160      0.967908
H       0.659870      2.484084      0.336311
H      -1.769188      1.718784      0.096815
H      -0.686988     -0.513093     -1.648955
H      -2.035059     -0.809797     -0.529134
H      -0.561764     -1.432394      1.242003
