13
Extracted from Q-Chem output
C      -1.129513      0.268452      1.014448
C      -0.550708     -0.769564      0.057824
O      -1.577617     -0.348658     -0.894404
C      -2.124333      0.566120     -0.107117
C       1.452603      0.716798     -0.640697
O       1.818907     -0.153166      0.418996
C       0.835407     -0.595276     -0.497633
H      -1.598193     -0.120079      1.918549
H      -0.489637      1.105508      1.290271
H      -0.724342     -1.811333      0.333539
H       0.907870      1.609523     -0.348513
H       2.208460      0.860532     -1.405919
H       1.163904     -1.387643     -1.166332
