13
Extracted from Q-Chem output
C      -0.878617      0.248294      1.041549
C      -0.567795     -0.911346      0.091906
O      -1.299706     -0.193107     -0.946684
C      -1.028105      0.983256     -0.277049
C       1.118128      0.647651     -0.641192
O       1.709363      0.089533      0.488469
C       0.879674     -0.738670     -0.353615
H      -1.860987      0.131041      1.496552
H      -0.136968      0.562515      1.768300
H      -0.917655     -1.932169      0.256510
H      -0.071444      1.582740     -0.664175
H       1.756458      1.053259     -1.422727
H       1.391991     -1.547270     -0.861304
