19
smiles: [C:1]([C:2]1=[C:7]([H:18])[C:4]2([C:3]1([H:12])[H:13])[C:5]([H:14])([H:15])[C:6]2([H:16])[H:17])([H:8])([H:9])[H:10].[H:11][H:19]
C       -2.56052600       0.50462600       0.32371500
C       -1.08289100       0.40701400       0.22338700
C       -0.18803000       0.22797800      -0.99132800
C        0.96874800       0.26858800       0.02399100
C        2.20978600      -0.56066500       0.03151700
C        2.29533000       0.93574200      -0.12589500
C       -0.06449400       0.43845700       1.08701100
H       -3.03722500      -0.38835600      -0.08961100
H       -2.93294400       1.35865200      -0.24888100
H       -2.88264600       0.61918000       1.35926400
H       -1.33856100      -3.06414800       0.14877500
H       -0.30207500      -0.71972000      -1.52390900
H       -0.20210400       1.05193600      -1.70954200
H        2.41614400      -1.17424100      -0.83678200
H        2.52918500      -0.99169600       0.97198600
H        2.55969000       1.32778100      -1.10026800
H        2.67110500       1.51423500       0.70858800
H        0.00039000       0.54732800       2.16365700
H       -1.05660700      -2.43388800       0.42746600
