13
Extracted from Q-Chem output
O       1.574055      1.879370     -0.915040
C       1.696991      0.917676     -0.211724
C       0.847364     -0.325980     -0.375066
O       0.652596     -1.035422      0.850631
C      -0.769595     -0.883638      0.714270
C      -1.295746      0.439779      1.004014
C      -0.647442     -0.128950     -0.597826
H       2.453650      0.861556      0.593605
H       1.301520     -0.964860     -1.142069
H      -1.342395     -1.796749      0.820564
H      -2.374684      0.393668      0.795615
H      -0.864702      1.000570     -0.203941
H      -1.211422     -0.380446     -1.483747
