16
Extracted from Q-Chem output
O      -2.156429     -2.020243      0.993571
C      -1.590359     -1.012427      0.182911
C       0.214060      1.978744      0.058768
C       0.317885      0.527253     -0.181937
C       1.483864      0.348101     -1.072079
N       1.601905      1.222908      0.104286
C      -0.235945     -0.543709      0.704753
H      -2.419534     -1.629438      1.828703
H      -1.479086     -1.453461     -0.809985
H      -2.259916     -0.149788      0.087781
H       0.300916      2.525862     -0.889183
H       1.546839      0.892419     -2.008680
H       2.033698     -0.590806     -1.029159
H       2.060207      0.914871      0.948957
H       0.435140     -1.405637      0.774420
H      -0.365563     -0.113204      1.701994
