16
Extracted from Q-Chem output
O      -2.357306     -1.502557      0.747963
C      -1.368732     -0.810808      0.069649
C      -0.657838      1.480614      0.023093
C       0.509983      0.538001      0.034440
C       1.595257      0.453403     -0.973337
N       1.786630      1.179698      0.284840
C      -0.007328     -0.694919      0.734627
H      -2.388213     -1.192221      1.656682
H      -1.309515     -1.218078     -0.939712
H      -1.709492      0.301421     -0.034810
H      -0.819618      1.859848     -1.004124
H       1.569178      1.079988     -1.858229
H       2.103828     -0.498172     -1.098540
H       2.342202      0.651812      0.946787
H       0.607258     -1.590317      0.629320
H      -0.144619     -0.474488      1.798378
