14
smiles: [C:1]([C:7]([C:2]#[C:3][H:11])([H:13])[H:14])([H:8])([H:9])[H:10].[C:4](=[N:5][H:12])=[O:6]
C       -2.58080300       0.37216600      -0.15019300
C       -0.27189900      -0.51171300      -0.45037100
C        0.38060800      -1.38455900      -0.94719500
C        2.88382300       0.31682300       0.70839500
N        3.56157600      -0.56039200       0.22935100
O        2.13329600       1.11438100       1.09027300
C       -1.09006100       0.54287900       0.14439600
H       -3.15321000       1.17913100       0.30948300
H       -2.76757100       0.38637900      -1.22449200
H       -2.94792700      -0.57656000       0.24258300
H        0.96347300      -2.15849300      -1.38720200
H        4.52131900      -0.74576500       0.45464100
H       -0.91954700       0.55141600       1.22414800
H       -0.74130900       1.50843200      -0.23116500
