14
Extracted from Q-Chem output
C      -2.003345      0.002646     -0.391572
C      -0.311891     -0.006284     -0.063056
C       0.667628     -0.797944     -0.361424
C       2.026948     -0.265709      0.180772
N       2.972981     -1.072474     -0.188296
O       1.971665      0.786617      0.849025
C      -0.835850      1.081397      0.546002
H      -2.790386      0.316945      0.294805
H      -2.157729      0.405433     -1.384715
H      -2.020259     -1.086457     -0.357104
H       0.622336     -1.721986     -0.917266
H       3.851813     -0.711208      0.181072
H      -1.088573      1.061670      1.600783
H      -0.907198      2.028166      0.020888
