16
smiles: [C:1]([C-:2][C:3]([C+:4][O:6][H:16])([H:11])[H:12])([H:7])([H:8])[H:9].[C:5]([H:10])([H:13])([H:14])[H:15]
C        1.86550900      -0.51520100       0.87416400
C        1.17362500      -0.11683800      -0.35654200
C        0.10851600      -1.06502000      -0.72252900
C       -0.98642300      -0.43803000      -1.54704100
C       -1.38089500       1.55122300       1.56102400
O       -0.56292000      -0.36472500      -2.77868900
H        2.89695000      -0.16724300       0.92911600
H        1.30769900       0.10889800       1.59706200
H        1.76650900      -1.55871600       1.20490500
H       -0.46636700       2.07925400       1.29520500
H        0.75649900      -1.70695400      -1.36176800
H       -0.29563600      -1.68254000       0.09124800
H       -2.12199800       2.26573800       1.91612400
H       -1.16775300       0.82742300       2.34604800
H       -1.76822900       1.03351300       0.68483600
H       -1.23550800       0.08034400      -3.30541000
