16
Extracted from Q-Chem output
C       1.064922     -0.761547      1.412407
C       1.100022      0.182576      0.253691
C       0.466331     -0.344252     -1.009055
C      -0.890112     -0.965295     -0.878686
C      -0.620643      1.537852      0.905862
O      -1.575757     -0.650087     -1.951203
H       1.901585     -1.445810      1.223975
H       1.288454     -0.255801      2.352256
H       0.164096     -1.376453      1.515376
H       0.535995      1.362036      0.569959
H       0.528721      0.373332     -1.835860
H       1.119861     -1.192229     -1.269767
H      -1.033373      2.159083      0.113151
H      -0.481819      2.098270      1.829088
H      -1.227391      0.654403      1.073392
H      -2.451318     -1.044951     -1.876834
