12
Extracted from Q-Chem output
N      -1.116384     -0.842550      1.015314
C      -0.389370     -0.164899      0.039657
O      -0.643145     -0.557984     -1.337652
C      -0.180267      1.346184      0.169751
O       1.228442      1.187377     -0.110244
C       1.100804     -0.200260     -0.288376
O       0.787973     -0.595518     -1.613264
H      -2.003342     -0.412125      1.229697
H      -1.234330     -1.823184      0.807192
H      -0.693789      1.942653     -0.585565
H      -0.338218      1.751172      1.171325
H       1.932439     -0.767531      0.125973
