12
Extracted from Q-Chem output
N      -1.304127     -0.740589      0.815684
C      -0.432673     -0.279073     -0.102125
O      -0.538743     -1.005188     -1.241520
C      -0.236809      1.249643     -0.145657
O       1.173435      1.279181     -0.058667
C       1.329889     -0.110190     -0.251032
O       1.189861     -0.544335     -1.463246
H      -1.746850     -0.141814      1.489140
H      -1.537423     -1.717710      0.809305
H      -0.620405      1.641421     -1.091310
H      -0.698187      1.775258      0.697137
H       2.104051     -0.569181      0.363101
