10
Extracted from Q-Chem output
O      -2.131990     -0.457057     -0.839984
C      -0.979558     -0.026968     -0.289241
C       0.178931     -0.698459     -0.272024
C       1.366574     -0.200516      0.321055
C       2.380284      0.203156      0.816883
C      -1.111974      1.275938      0.305613
N      -1.216016      2.315104      0.779887
H      -2.002315     -1.325352     -1.231980
H       0.222061     -1.678916     -0.736844
H       3.274094      0.575069      1.259446
