15
Extracted from Q-Chem output
O       0.789474      2.079246     -0.732997
C      -0.415934      1.724017     -0.242239
C      -1.680242      2.056705     -0.367063
C      -0.321685     -2.380275      0.385020
C       0.597989     -1.467493      0.652324
C       1.038052     -0.396803     -0.302404
C       0.707494      0.974462      0.227102
H      -1.979915      2.854555     -1.032444
H      -2.429794      1.527214      0.201811
H      -0.600344     -3.131448      1.113654
H      -0.826943     -2.410967     -0.574576
H       1.079768     -1.470148      1.627636
H       0.558992     -0.527914     -1.274033
H       2.121296     -0.455996     -0.452078
H       1.127955      1.231584      1.197126
