11
Extracted from Q-Chem output
C      -1.617513     -0.669849      0.436202
C      -0.401112     -0.262596      0.126397
C       0.146804      1.096011     -0.243676
N       1.575678      0.864251     -0.457827
C       1.751839     -0.363169     -0.251726
O       0.679577     -1.129296      0.093350
H      -1.819800     -1.704163      0.676154
H      -2.434587      0.037097      0.452482
H      -0.308543      1.493247     -1.153172
H      -0.001571      1.832753      0.548218
H       2.688844     -0.900576     -0.318096
