16
Extracted from Q-Chem output
C      -1.304166      1.350495     -1.189200
C      -0.261563     -0.935842      0.211032
C      -0.808132     -0.415982      1.549686
C       0.556229      0.067794     -0.508977
O      -0.022667      1.049298     -1.102581
C       2.042326      0.056833     -0.553538
H      -1.513132      2.146382     -1.881618
H      -2.045670      0.668668     -0.803929
H      -1.099807     -1.236188     -0.435714
H       0.342931     -1.829168      0.380184
H      -1.324563      0.537774      1.426372
H       0.004891     -0.265073      2.261276
H      -1.512684     -1.126399      1.984897
H       2.479240      0.139094      0.448447
H       2.422060     -0.873411     -0.988987
H       2.407409      0.890764     -1.151823
