19
Extracted from Q-Chem output
C       2.096878     -0.353959     -0.349316
C       0.966083      0.012201      0.598620
O       1.505109      0.049229      1.906347
C       0.136695      1.147098      0.264837
C      -0.751974      1.123240     -0.902245
C      -1.676244      0.184295     -0.162109
C      -1.381685     -1.244461     -0.155392
H       1.733339     -0.404621     -1.376661
H       2.513221     -1.326369     -0.080686
H       2.887023      0.396281     -0.295927
H       0.231198     -0.913360      0.505158
H       0.795196      0.275163      2.510075
H      -0.026528      1.914045      1.012982
H      -0.350507      0.673721     -1.812229
H      -1.213790      2.077451     -1.140377
H      -2.265367      0.592178      0.648511
H      -1.009196     -1.708906     -1.060367
H      -2.454407     -0.559447     -0.772932
H      -1.762505     -1.884458      0.629026
