12
Extracted from Q-Chem output
N       1.534424      1.023176     -0.334443
C       1.942505      0.357462      0.684374
C       0.894825     -0.901322      0.309542
O      -0.196071     -0.928725      1.198767
C      -1.080186     -0.069385      0.899747
C      -0.886878      0.584607     -0.415954
C       0.516437      0.082269     -0.798984
H       1.275050     -1.906628      0.168593
H      -1.883665      0.062335      1.614041
H      -1.712407      0.333583     -1.092711
H      -0.859373      1.677365     -0.322466
H       0.611060     -0.232989     -1.838905
