14
Extracted from Q-Chem output
N      -2.560230     -0.534497      0.175266
C      -1.295652     -0.348663      0.138457
C      -0.073908     -0.983771      0.340069
C       0.990272     -0.091530      0.030375
N       2.309538     -0.425042      0.192722
C       0.538009      1.126380     -0.399431
N      -0.921733      1.073528     -0.291138
H      -1.418504      1.254916     -1.159873
H      -2.779408     -1.484184      0.450649
H       0.035704     -2.008903      0.654107
H       2.980843      0.128050     -0.309346
H       2.517912     -1.407363      0.205498
H       1.032168      2.075699     -0.502930
H      -1.308930      1.698665      0.413200
