15
Extracted from Q-Chem output
O       2.211027      0.779969     -0.434998
C       0.987389      0.223006     -0.438203
C       0.672530     -1.056291      0.219708
C      -0.808090     -1.166940      0.096091
C      -1.450416      0.077384      0.577459
C      -0.728808      1.156424     -0.106459
C      -0.032293      0.721751     -1.272138
H       2.759130      0.357175      0.230931
H       1.058131     -1.133404      1.253792
H       1.187161     -1.813861     -0.382688
H      -1.266690     -2.120206      0.332266
H      -2.479780      0.162520      0.202984
H      -1.509473      0.175764      1.675307
H      -0.841345      2.208993      0.136808
H       0.221146      1.418798     -2.068681
