11
Extracted from Q-Chem output
C      -2.005168     -0.165255      0.323959
C      -0.766002     -0.978974      0.607238
C       0.480239     -0.360734      0.231503
C       1.516550      0.168218     -0.088117
O      -0.808814     -2.076792      1.114212
N       2.668332      0.707759     -0.467326
H      -2.065745      0.065103     -0.741518
H      -1.958839      0.783699      0.862041
H      -2.883915     -0.726415      0.635129
H       3.520785      0.303453     -0.121389
H       2.695622      1.690759     -0.672491
