12
Extracted from Q-Chem output
C      -1.616859     -0.015244      0.824797
C      -0.135130     -0.386763      0.870408
C       0.689383     -0.120788     -0.233706
O       0.352017     -0.805633     -1.267030
C       1.922696      0.726528     -0.329128
O       2.601924      0.999001      0.619245
H      -1.777887      0.975935      1.257105
H      -2.003769     -0.009669     -0.195118
H      -2.209280     -0.727197      1.399667
H      -0.251587     -1.334776     -0.259070
H       0.319641     -0.304751      1.853469
H       2.162385      1.054973     -1.358953
