14
Extracted from Q-Chem output
C       1.986295      0.324239      0.092989
O       0.902047     -0.386507      0.638967
C      -0.240311     -0.410161     -0.185394
C      -1.234412     -1.376162      0.435846
C      -0.827664      0.932715     -0.353176
C      -1.311364      2.019664     -0.488779
H       2.296453     -0.101535     -0.870294
H       2.810091      0.238638      0.799524
H       1.743922      1.382792     -0.051734
H       0.043648     -0.771428     -1.185741
H      -2.135262     -1.439980     -0.174338
H      -0.780658     -2.364070      0.513301
H      -1.509510     -1.033910      1.433456
H      -1.743276      2.985703     -0.604627
