14
Extracted from Q-Chem output
C       1.761642      0.544103     -0.085143
O       0.451791      0.439735      0.461178
C      -0.686774     -0.328597     -0.443287
C      -1.193558     -1.483546      0.363936
C      -1.489239      0.895245     -0.586587
C      -0.611037      1.593766      0.079573
H       2.249818     -0.428254     -0.007912
H       2.318495      1.272922      0.503156
H       1.718784      0.867959     -1.129004
H      -0.132969     -0.634688     -1.334325
H      -1.967924     -1.987116     -0.217682
H      -0.401965     -2.201769      0.582545
H      -1.640944     -1.130749      1.292554
H      -0.330536      2.542464      0.509057
