14
Extracted from Q-Chem output
N      -0.405160      1.720482     -0.806459
C      -0.586846      2.386072     -1.743018
C      -0.179200      0.898862      0.339266
C       1.216174      0.239637      0.258341
C       0.913300     -1.147136     -0.238778
C      -0.380346     -1.425120     -0.182164
C      -1.182763     -0.275895      0.363139
H      -0.279098      1.542153      1.212983
H       1.882429      0.804905     -0.393903
H       1.682155      0.207553      1.247999
H       1.684306     -1.830855     -0.569603
H      -0.828164     -2.369565     -0.463083
H      -2.074180     -0.046567     -0.221576
H      -1.509619     -0.478607      1.387638
