14
Extracted from Q-Chem output
O       1.745438      1.722163     -0.539156
C       0.981396      0.864388     -0.111968
C       1.430479     -0.695467      0.303666
N       0.051404     -0.978054     -0.030013
C      -0.931231     -0.546149      0.751854
C      -1.603073      0.278752     -0.315235
C      -0.221640      0.132850     -0.961090
H       2.120049     -1.102259     -0.434051
H       1.715057     -0.929135      1.327396
H       0.313860      1.003794      0.872740
H      -1.099357     -0.796896      1.791312
H      -1.899835      1.286559     -0.032524
H      -2.424711     -0.223720     -0.830074
H      -0.046583     -0.015776     -2.024042
