11
Extracted from Q-Chem output
O       0.364822      1.980880     -0.227789
C       0.046987      0.662070     -0.097602
C      -1.127245     -0.197286     -0.498216
N      -0.322341     -1.365834      0.004880
C       0.656481     -0.418965      0.395837
O       1.780176     -0.763168      1.033891
H       0.548513      2.179135     -1.149564
H       2.287061      0.032718      1.215358
H      -2.051148     -0.046496      0.064767
H      -1.347303     -0.287495     -1.564197
H      -0.764478     -1.840311      0.786196
