12
Extracted from Q-Chem output
C      -0.090236      1.450049      0.523422
C      -0.978623      0.325860      0.945975
C      -1.227952     -0.789361      0.286580
O      -0.687560     -1.116212     -0.962003
C       0.605244     -1.138213     -1.081330
C       1.788410     -1.183960     -1.247975
H       0.826016      1.464727      1.118526
H       0.195585      1.377801     -0.524325
H      -0.596944      2.404213      0.678618
H      -1.490315      0.418883      1.898120
H      -1.917299     -1.552831      0.620135
H       2.839910     -1.228674     -1.393536
