12
Extracted from Q-Chem output
C      -0.032235      1.352740      0.328300
C      -0.429549     -0.056553      0.777589
C      -1.399036     -0.776446      0.072365
O      -0.800305     -1.244000     -0.989333
C       0.516696     -0.933557     -0.546215
C       1.670751     -1.135151     -0.997357
H       1.028120      1.510455      0.527598
H      -0.198561      1.504554     -0.737336
H      -0.612927      2.091037      0.884846
H      -0.453479     -0.143970      1.863659
H      -2.411925     -1.108224      0.274975
H       2.641209     -0.799890     -0.677347
