15
Extracted from Q-Chem output
C       2.323330      0.387561     -0.179251
N       1.011563      0.016454      0.455670
C       0.474758     -1.147469      0.716921
C      -0.905184     -1.160057      0.443856
C      -1.199886      0.075319     -0.120445
N      -2.406732      0.532572     -0.516540
C       0.023198      0.860038     -0.146363
H       0.990395      1.027585     -0.983490
H       2.987278      0.820605      0.572257
H       2.776509     -0.518007     -0.589555
H       1.096416     -1.988535      0.996281
H      -1.579508     -1.988672      0.594813
H      -3.187467     -0.095611     -0.554978
H      -2.454364      1.347133     -1.099319
H      -0.036945      1.855425      0.295220
