11
smiles: [C:4](=[C:5]([H:10])[H:11])([H:8])[H:9].[N:1]1([H:7])[C:2](=[O:6])[O:3]1
N        1.81250100       0.61768800       0.84556100
C        1.87009800       0.50721900      -0.53844900
O        1.42964700       1.69646700      -0.20631900
C       -1.58671400       0.13322200       0.40305900
C       -1.16888700      -1.11872100       0.32897800
O        2.14400000      -0.15797700      -1.46628000
H        0.91362300       0.25962300       1.17659200
H       -1.46466600       0.82365400      -0.42373700
H       -2.06607100       0.52142500       1.29450400
H       -1.29095200      -1.80913600       1.15578500
H       -0.68953700      -1.50691200      -0.56247500
