13
Extracted from Q-Chem output
O       1.638705     -0.554202      1.173374
N       1.110299      0.565713      0.449321
C      -0.045306      0.049347     -0.318794
C      -0.207707     -1.278462     -0.954109
C      -0.276195      0.734550      0.922090
C      -0.761997      1.355770     -0.339878
H       2.570369     -0.332854      1.224262
H       0.199826     -1.275349     -1.967231
H       0.310242     -2.037173     -0.369175
H      -0.646168      0.523405      1.909865
H      -1.264785     -1.542159     -1.012343
H      -1.830269      1.288478     -0.513791
H      -0.274149      2.248443     -0.726226
