17
Extracted from Q-Chem output
C      -1.641952     -1.176831     -0.030237
C      -0.510714     -0.651644     -0.877942
C      -0.094151      0.814374     -0.886332
C      -0.777989      1.866593     -0.050198
C       0.755899     -0.215923     -0.262636
C       1.791286     -0.505679      0.437322
C       2.846279     -0.801157      1.144628
H      -2.603067     -1.036398     -0.530093
H      -1.511028     -2.244246      0.155551
H      -1.683284     -0.679328      0.938582
H      -0.405835     -1.146892     -1.839559
H       0.254885      1.169165     -1.852433
H      -0.103183      2.705308      0.128548
H      -1.667921      2.249577     -0.554795
H      -1.078613      1.476253      0.922005
H       3.782019     -1.071020      0.669049
H       2.816497     -0.785879      2.228010
