11
Extracted from Q-Chem output
C      -1.741767      0.088620     -0.446395
C      -0.452174      0.647055      0.097216
O      -0.327998      1.749782      0.544262
N       0.619370     -0.263199      0.029351
C       1.875655     -0.019411      0.443079
O       2.729334     -0.987017      0.295054
H      -1.626892     -0.172370     -1.500595
H      -2.521646      0.836994     -0.339870
H      -2.026229     -0.815605      0.095651
H       0.459056     -1.188096     -0.361460
H       3.057920      0.066112      0.778273
