17
Extracted from Q-Chem output
C       1.951218     -0.163466     -0.378475
N       0.849138      0.625424      0.149653
C       0.202715      0.444646      1.552063
C      -0.539697      0.121141      0.300812
C      -1.584128      1.109525     -0.170657
C      -0.800783     -1.283830     -0.197312
H       1.888427     -1.178932      0.001519
H       1.938025     -0.181650     -1.470837
H       2.889575      0.271126     -0.033115
H       0.906704      1.597551     -0.116297
H       0.665100     -0.480316      1.926002
H      -2.541795      0.857785      0.288767
H      -1.713980      1.094502     -1.257698
H      -1.328162      2.117764      0.156846
H      -1.765842     -1.605812      0.198284
H      -0.861335     -1.338209     -1.289025
H      -0.060687     -2.000976      0.154330
