17
Extracted from Q-Chem output
C       1.932204     -0.181699     -0.465123
N       0.829017      0.686787     -0.098083
C       0.179964      0.487119      1.496275
C      -0.512404      0.177328      0.216692
C      -1.608939      1.116258     -0.238798
C      -0.785786     -1.260059     -0.172386
H       1.928949     -1.145292      0.048871
H       1.903339     -0.353909     -1.543182
H       2.866984      0.326694     -0.229176
H       0.959133      1.391580      0.787472
H       0.706899     -0.403875      1.859744
H      -2.544775      0.864729      0.265029
H      -1.766201      1.043047     -1.318362
H      -1.354410      2.144860      0.012517
H      -1.734449     -1.568755      0.269097
H      -0.881003     -1.365722     -1.256661
H      -0.024031     -1.952823      0.180934
