15
Extracted from Q-Chem output
C       2.016676      0.182753      1.191058
C       1.205685     -0.137401     -0.917344
N      -0.094158     -0.161854     -0.697876
C      -0.602595     -0.044370      0.460158
O      -1.888820     -0.023267      0.721548
C      -2.786418     -0.124510     -0.386104
H       1.944774      0.032160      2.274686
H       2.788478     -0.506590      0.851951
H       2.349948      1.207547      1.029424
H       1.706569     -1.068747     -1.168243
H       1.654715      0.773448     -1.304372
H       0.692484      0.060733      1.121498
H      -3.791004     -0.055769      0.024348
H      -2.646909     -1.080277     -0.893929
H      -2.603824      0.688005     -1.091080
