14
Extracted from Q-Chem output
O      -1.099431      1.591448      1.276679
C      -0.534499      0.595026      0.674944
C      -1.177114     -0.091029     -0.510106
N       0.049520     -0.725013     -1.029500
C       0.994361      0.402109     -0.744927
C       0.782237      0.140645      0.879133
C       0.587194     -1.288894      0.255117
H      -1.606324      0.622844     -1.216123
H      -1.937884     -0.824065     -0.232552
H       0.744160      1.361728     -1.205080
H       2.023764      0.132548     -0.972454
H      -0.471794      1.870307      1.966859
H       1.544644     -1.774300      0.068536
H      -0.084733     -1.984762      0.766133
