12
Extracted from Q-Chem output
C      -1.873864      0.267395      0.217189
C      -0.467897     -0.152788     -0.072445
C       0.009891     -1.507393     -0.098538
O       1.382737     -1.305890     -0.116025
C       1.618306      0.009132      0.012825
O       2.889779      0.339827      0.078317
N       0.595797      0.775229      0.037302
H      -1.955597      0.525482      1.273198
H      -2.151211      1.142442     -0.369543
H      -2.561461     -0.550722      0.006779
H      -0.476117     -0.698265     -1.177721
H       2.940555      1.297944      0.162950
