13
Extracted from Q-Chem output
C       1.551147     -0.487401     -0.017011
C      -0.238684      0.198221     -0.042866
C      -0.429922      1.690301     -0.016346
N      -0.480734      0.844963     -1.259150
C      -1.060681     -0.823225      0.614397
O      -2.190958     -1.045258      0.265018
H       1.422001     -0.926174     -0.996659
H       2.391920      0.214891     -0.047548
H       1.650124     -1.207511      0.788205
H      -1.422774      1.858737      0.421300
H       0.901319      0.499303      0.392860
H      -1.415842      0.559501     -1.553521
H      -0.603600     -1.343096      1.477283
