17
Extracted from Q-Chem output
C      -2.129056      0.048756     -0.067710
C      -1.038914      0.720435     -0.771799
C      -0.074889     -0.302513     -0.229158
C       0.334547     -1.394837     -1.057769
C       1.533136     -0.062507      0.141245
C       1.247769      1.071556      1.076981
C       0.525961     -0.239998      1.149214
H      -2.436274     -0.943117     -0.367423
H      -2.641148      0.526085      0.755331
H      -1.033932      0.740942     -1.864458
H      -0.866412      1.729151     -0.403380
H       0.578504     -2.368357     -0.651917
H       0.343832     -1.262438     -2.131019
H       2.470332     -0.533191     -0.101193
H       0.738122      1.965003      0.739816
H       2.019802      1.247257      1.822187
H       0.428512     -0.946949      1.957652
