14
Extracted from Q-Chem output
O       1.891040      0.996493      0.493299
C       1.678033     -0.264964     -0.098189
C       0.280320     -0.808787      0.176976
C      -0.776243     -0.057602     -0.586264
C      -1.998790      0.439445      0.034262
O      -0.929484      1.325800     -0.260808
H       1.115323      1.540666      0.326603
H       1.852100     -0.224054     -1.183749
H       2.428140     -0.936116      0.324508
H       0.231597     -1.863709     -0.109312
H       0.084351     -0.746819      1.250804
H      -0.797139     -0.241132     -1.659527
H      -2.167825      0.255090      1.091421
H      -2.891424      0.585692     -0.566091
