14
Extracted from Q-Chem output
O       1.588505      1.065807     -1.219395
C       1.583052     -0.700220      0.015877
C       0.238439     -0.968679      0.254379
C      -0.735974      0.483961     -0.248657
C      -2.133567      0.261050      0.161379
O      -1.237965      1.116922      0.866128
H       1.890350      1.822069     -0.711693
H       2.110299     -1.127710     -0.823324
H       2.199702     -0.246785      0.781195
H      -0.208376     -1.742737     -0.360392
H      -0.054093     -0.987925      1.298526
H       0.541357      1.010912     -1.037413
H      -2.422179     -0.637193      0.700658
H      -2.932092      0.763633     -0.375747
