13
Extracted from Q-Chem output
C      -0.513506     -1.465764      1.034570
C      -0.050830      0.718409     -1.434004
C       0.310976      1.611358     -0.283190
O       0.535907      0.691837      0.756769
C       0.448780     -0.631627      0.219108
N       0.028858     -0.510645     -1.164470
H      -0.548058     -2.483859      0.646134
H      -1.513983     -1.033181      0.985361
H      -0.191369     -1.491963      2.075576
H      -0.346140      1.076010     -2.416162
H      -0.494866      2.306546     -0.022583
H       1.210702      2.203039     -0.500100
H       1.448024     -1.086361      0.229035
