13
Extracted from Q-Chem output
C      -0.799535     -0.962552      0.617438
C      -0.171005      0.299241     -0.996674
C       0.271265      1.410377     -0.044299
O       1.296718      0.667438      0.613310
C       1.125106     -0.516503     -0.050155
N       0.906367     -0.412367     -1.394884
H      -0.695393     -2.021565      0.382744
H      -1.807257     -0.661502      0.327309
H      -0.664833     -0.759170      1.678701
H      -1.088293      0.334169     -1.580021
H      -0.464313      1.720117      0.695979
H       0.669458      2.266916     -0.592632
H       1.572264     -1.393128      0.403770
