13
Extracted from Q-Chem output
N      -1.699801     -0.890049     -0.470824
C      -0.537136     -0.291285     -0.671703
O       0.111667     -0.634037     -1.764914
C      -0.208942      0.997932      0.050822
C       1.154894      0.566968      0.608767
O       1.168666     -0.791120      0.281865
H      -2.266420     -0.655639      0.322746
H      -1.892102     -1.740693     -0.972287
H      -0.946467      1.206161      0.828067
H      -0.213318      1.826138     -0.662077
H       1.986522      1.128603      0.158184
H       1.203275      0.736567      1.692261
H       0.998245     -0.787850     -1.224312
