10
Extracted from Q-Chem output
N      -0.640575      0.757353     -0.646671
C      -0.727651     -0.544255      0.874720
O      -1.586810     -0.414085      1.623988
C       0.543452     -0.930211      0.418263
C       0.812775      0.598384     -0.369586
N       1.795320      1.243425     -0.531946
H      -0.917835      1.730655     -0.565087
H      -0.903495      0.427564     -1.571404
H       1.207478     -1.300085      1.193821
H       0.489063     -1.582657     -0.450561
