21
Extracted from Q-Chem output
C       2.692486      0.624644     -0.532798
C       1.470065     -0.074111     -0.966078
C      -0.681288     -1.832243      0.511107
C      -0.900658     -0.689622     -0.476278
C      -2.308320     -0.114488     -0.348920
C       0.211037      0.374331     -0.345803
C       0.227863      1.117677      0.995081
H       2.742994      0.972184      0.506197
H       3.596514      0.078329     -0.802192
H       2.694358      1.524180     -1.171478
H       0.314886     -2.265114      0.390121
H      -1.412907     -2.626994      0.351653
H      -0.785687     -1.495957      1.546393
H      -0.784166     -1.096426     -1.484251
H      -2.517593      0.241409      0.662904
H      -2.466394      0.718694     -1.038468
H      -3.053009     -0.879336     -0.579094
H       0.003487      1.113915     -1.155517
H       0.835156      2.021836      0.949146
H       0.632446      0.487420      1.789881
H      -0.776125      1.420252      1.293787
