21
Extracted from Q-Chem output
C       2.431330     -0.006073      0.002111
C       1.259666     -0.233884     -0.896251
C      -0.103189     -1.553534      0.086715
C      -1.011243     -0.514870     -0.554954
C      -2.326375     -0.246689      0.151938
C       0.015232      0.630552     -0.670872
C       0.013540      1.569970      0.535427
H       2.230156      0.239868      1.052668
H       3.148161     -0.826469     -0.047603
H       2.930752      0.868194     -0.435138
H       0.838544     -1.493499     -0.709337
H      -0.374631     -2.604463     -0.036201
H       0.163143     -1.346353      1.121581
H      -1.217725     -0.858304     -1.572479
H      -2.175924      0.063769      1.187923
H      -2.895340      0.536523     -0.354018
H      -2.942109     -1.149306      0.164526
H      -0.158732      1.237405     -1.565785
H       0.844119      2.276655      0.482257
H       0.093735      1.040285      1.487692
H      -0.908636      2.154011      0.562837
