14
Extracted from Q-Chem output
C      -1.820215      0.885883     -0.132171
O      -1.279491     -0.337057      0.311502
C      -0.180109     -0.739808     -0.435281
C       0.895368     -1.504047      0.307045
C       1.135803     -0.142376     -0.184338
C       1.940591      0.891576     -0.276296
H      -1.093593      1.699822     -0.031990
H      -2.143046      0.824778     -1.179018
H      -2.685296      1.099899      0.493732
H      -0.416272     -1.059093     -1.450934
H       1.628597      1.804696     -0.770382
H       0.737331     -1.628114      1.372778
H       1.362079     -2.346233     -0.190857
H       2.941270      0.866171      0.140505
