17
Extracted from Q-Chem output
C       2.194870     -0.583001      0.771705
O       0.847703     -0.190579      0.645584
C       0.435468     -0.028676     -0.703898
C      -1.019237      0.420705     -0.747384
C      -1.976193     -0.602347     -0.121043
C      -1.351512      1.770282     -0.114974
O      -0.592460      2.047241      0.903331
H       2.365310     -1.541391      0.268962
H       2.406145     -0.693946      1.833733
H       2.869940      0.167200      0.343509
H       1.078841      0.716149     -1.194152
H       0.558149     -0.978814     -1.241805
H      -1.284631      0.521177     -1.803951
H      -1.925076     -1.550239     -0.659604
H      -1.722983     -0.788589      0.923416
H      -3.002668     -0.236600     -0.162737
H       0.077268      1.350687      1.094434
