13
Extracted from Q-Chem output
C      -1.204175     -0.606295      0.196710
O      -0.226223     -1.435674     -0.402521
C       1.435270     -0.263609      0.147971
C       0.752936      1.015880      0.189093
N       0.143979      1.040013     -1.106381
C      -0.715669      0.825164      0.019561
H      -1.315724     -0.916761      1.237079
H      -2.158855     -0.737662     -0.320989
H       1.474101     -0.984364      0.957965
H       2.147959     -0.411268     -0.656159
H       1.173792      1.890279      0.693379
H      -0.061966     -0.990954     -1.260896
H      -1.443813      1.597419      0.270353
