15
smiles: [C:1]([C:2](=[C:3]([H:9])[H:10])[O:5][H:15])([H:6])([H:7])[H:8].[C:4]([H:11])([H:12])([H:13])[H:14]
C        1.08584200       1.45740900       1.66508400
C        0.70588400       0.26816900       0.84867000
C        1.50017400      -0.35848300      -0.01372100
C       -1.85803400      -0.87569400      -1.98593300
O       -0.57957300      -0.10094800       1.10065300
H        2.11578600       1.74954000       1.47176500
H        0.42560700       2.29536900       1.43271800
H        0.96971500       1.23359400       2.72738100
H        2.51279900      -0.01858200      -0.17180400
H        1.16348500      -1.21950300      -0.57990000
H       -2.57085200      -0.42866100      -1.29468400
H       -0.95065800      -0.27427400      -2.01191300
H       -1.61490000      -1.88426600      -1.65503700
H       -2.29587400      -0.91659900      -2.98220100
H       -0.80127500      -0.86581300       0.56393100
