15
Extracted from Q-Chem output
C       0.105156      1.335816      0.725324
C       0.140168     -0.138196      0.492095
C       1.362033     -0.749143      0.048419
C      -1.003691     -0.139173     -1.375330
O      -0.760573     -0.809490      1.219774
H       0.575850      1.865258     -0.099331
H      -0.915150      1.686973      0.858537
H       0.673320      1.527260      1.640093
H       2.269216     -0.166229      0.122151
H       1.439235     -1.827516      0.129186
H       0.384909     -0.444814     -0.904540
H      -0.630702      0.376690     -2.267537
H      -1.301112     -1.160813     -1.630949
H      -1.868519      0.396549     -0.987363
H      -0.498705     -1.733916      1.264629
