14
Extracted from Q-Chem output
C      -1.794245     -0.023021     -0.130103
C      -0.748611     -0.982738      0.354257
C       0.960251      1.408187     -0.993348
C       1.448692      0.514107      0.034834
C       0.694258     -0.735027      0.434552
O       0.152982     -1.541853     -0.594595
H      -1.383784      0.678913     -0.851661
H      -2.614695     -0.579370     -0.588131
H      -2.202984      0.534620      0.716283
H      -1.119529     -1.727417      1.059745
H       1.801401      2.088248     -1.221692
H       1.278640      1.316998      0.806027
H       2.530848      0.331668      0.079492
H       1.232392     -1.308278      1.190485
