14
Extracted from Q-Chem output
C      -1.742377      0.234200      0.123375
C      -0.633894     -0.751140      0.131048
C       0.753487      0.450447     -1.130331
C       1.308065      0.704662      0.268474
C       0.755317     -0.659393      0.573735
O       0.900322     -1.144315     -0.789586
H      -1.403942      1.250646      0.294527
H      -2.281786      0.192370     -0.820972
H      -2.443051     -0.077474      0.914389
H      -0.966547     -1.785397      0.069736
H       1.441540      0.644922     -1.956153
H       0.871084      1.534177      0.830684
H       2.399960      0.723158      0.373672
H       1.122119     -1.324064      1.353429
