10
Extracted from Q-Chem output
O      -0.174649      2.259323     -0.171395
C      -0.150553      1.069431     -0.128720
C      -1.167054     -0.012229      0.248549
C      -0.010387     -0.903363      0.715485
O       0.849276     -0.866413     -1.026530
C       0.973742      0.060209      0.064744
H      -1.803630     -0.446579     -0.520336
H      -1.799914      0.289986      1.089249
H       1.311715     -1.676746     -0.772141
H       1.993727      0.302327      0.351686
