10
Extracted from Q-Chem output
O      -0.244740      2.267891     -0.143296
C      -0.133090      1.084949     -0.096236
C      -1.096548     -0.077189      0.191875
C       0.128758     -0.939046      0.523921
O       0.910649     -0.774886     -1.039175
C       1.058112      0.147281      0.041491
H      -1.745725     -0.447640     -0.598430
H      -1.695217      0.132163      1.082669
H       0.766722     -1.707902     -0.446857
H       2.073354      0.390322      0.334630
