14
smiles: [C:1](=[C:2]1/[C:3](=[N:4]\[H:12])[C:5]([H:13])=[C:6]([H:14])[O:7]1)([H:8])[H:9].[H:10][H:11]
C       -1.34452500      -1.23785000      -0.41134400
C       -0.11965200      -0.77464000      -0.23376600
C        0.43842000       0.59503400      -0.46914600
N       -0.13359900       1.64220600      -0.89927900
C        1.84112500       0.46514200      -0.08215800
C        2.01809800      -0.79570900       0.30667900
O        0.89985200      -1.57394600       0.23952200
H       -2.12143000      -0.58374200      -0.78208600
H       -1.59472900      -2.26627000      -0.19169700
H       -2.53182800       1.43961100       1.68622700
H       -1.92072400       1.73900700       1.38406200
H       -1.11718200       1.46929500      -1.09882500
H        2.57656600       1.25064700      -0.11415900
H        2.89663700      -1.30845200       0.66812700
