15
Extracted from Q-Chem output
C       1.647448     -0.900249      0.948794
C       0.624798     -0.328173      0.007920
C       0.756811     -0.280085     -1.329765
C      -0.611895      0.171860      0.536039
O      -0.778479      0.015171      1.827086
C      -1.648287      0.950314     -0.217583
O      -1.731976      0.967733     -1.501434
H       2.532150     -1.214594      0.396855
H       1.249387     -1.763925      1.484298
H       1.947775     -0.166063      1.698150
H      -0.051192      0.150918     -1.921645
H       1.656962     -0.664861     -1.798232
H      -1.662222      0.329304      2.073815
H      -2.603032      0.795662      0.366207
H      -1.258460      1.931566      0.253470
