15
Extracted from Q-Chem output
C       1.824993     -0.122079      0.842033
C       0.576884      0.138307      0.078198
C      -0.128962     -0.814240     -0.845256
C      -0.872179     -0.163141      0.290346
O      -1.488143     -0.851548      1.311921
C      -1.108897      1.297872     -0.035574
O       0.295023      1.479843     -0.324635
H       2.700115      0.045538      0.210972
H       1.843590     -1.155583      1.189161
H       1.887575      0.538537      1.707622
H      -0.322086     -0.537977     -1.876666
H       0.106391     -1.857860     -0.669813
H      -2.164997     -1.419714      0.938893
H      -1.748505      1.543739     -0.887911
H      -1.400804      1.878306      0.842917
