16
smiles: [C-:1]([O+:2]=[C:3]([H:11])[H:12])([H:8])[H:9].[C:4](=[N:5]/[O:6][H:13])(\[C:7]([H:14])([H:15])[H:16])[H:10]
C        2.39453900       0.27805400       0.19566200
O        1.82052500      -0.21059900       1.24398200
C        0.81314800       0.22305300       1.92540500
C       -0.93154900      -0.26238300      -0.70734400
N       -1.52613000       0.85305300      -0.71455900
O       -0.63082100       1.91248400      -0.73734300
C       -1.71651900      -1.52757300      -0.68323100
H        2.02369900       1.19862800      -0.23514300
H        3.22818000      -0.28884000      -0.17940900
H        0.15908400      -0.29838300      -0.71905300
H        0.32108300       1.13898400       1.62615300
H        0.53156400      -0.38456300       2.76719300
H       -1.20296800       2.68227500      -0.74059600
H       -1.46901100      -2.11581300       0.20363000
H       -1.48035500      -2.14248300      -1.55488400
H       -2.78374500      -1.31145300      -0.67930300
