15
Extracted from Q-Chem output
O      -0.006378      2.195242     -1.624182
C      -0.449689      1.094777     -1.443858
C      -1.171072      0.643540     -0.201896
C      -0.846561     -0.794101      0.189393
C       0.571052     -1.014685      0.697634
C       1.730248     -0.148444      0.299107
C       1.309146      0.008858      1.504978
H      -2.240487      0.716714     -0.433117
H      -0.963623      1.356218      0.598055
H      -1.552442     -1.122631      0.957787
H      -1.018524     -1.449236     -0.672641
H       0.770265     -2.067811      0.906573
H      -0.363802      0.321181     -2.240229
H       2.420637      0.124253     -0.479882
H       1.398045      0.502799      2.456746
