16
Extracted from Q-Chem output
C       1.040760      0.741466      0.393188
C       0.737642     -0.743906      0.591357
C      -0.353032     -1.032495     -0.446969
O      -1.127868     -2.180282     -0.177700
C      -1.229328      0.211422     -0.398817
C      -0.276746      1.339743     -0.084120
N      -0.578190      2.557126     -0.224058
H       0.195500      3.158408      0.056832
H       1.410756      1.240280      1.289877
H       1.789042      0.890037     -0.391765
H       0.312274     -0.920642      1.583211
H       1.613665     -1.385616      0.481066
H       0.108912     -1.114821     -1.441598
H      -0.574905     -2.957940     -0.269938
H      -1.936888      0.100168      0.429540
H      -1.804903      0.397903     -1.303533
