16
Extracted from Q-Chem output
C       1.210130      0.790998      0.333874
C       0.747802     -0.626352      0.576300
C      -0.339648     -0.928838     -0.452452
O      -1.027663     -2.137003     -0.216675
C      -1.337904      0.207201     -0.362120
C      -0.613543      1.506613     -0.170337
N      -0.709526      2.715471     -0.156363
H       0.410950      2.084443      0.264981
H       1.709771      1.239466      1.197708
H       1.844269      0.889221     -0.548815
H       0.310305     -0.730048      1.573612
H       1.560902     -1.355838      0.497545
H       0.110185     -0.937398     -1.455482
H      -0.404952     -2.864049     -0.277563
H      -1.987208      0.039354      0.501487
H      -1.967577      0.302782     -1.246470
