6
Extracted from Q-Chem output
O      -2.004222      0.809558     -0.569502
C      -0.973592      0.353316     -0.262527
C       0.232998     -0.056250      0.031106
C       1.429591     -0.492724      0.334119
H      -0.818774     -0.847258      0.373249
H       2.231329      0.185209      0.034409
