13
Extracted from Q-Chem output
C       2.976279      0.559314     -0.326736
C       1.801088      0.372404     -0.179967
C       0.414028      0.104358     -0.019580
C      -0.548653      0.950579      0.325521
C      -1.859468      0.234807      0.367933
O      -1.561131     -1.108085      0.023075
C      -0.179241     -1.263805     -0.238373
H       4.017900      0.736107     -0.455973
H      -2.581196      0.651824     -0.345943
H      -0.423610      2.001588      0.544441
H      -2.320147      0.269621      1.363155
H       0.252761     -2.007228      0.441398
H      -0.023664     -1.612358     -1.266148
