14
Extracted from Q-Chem output
O       0.642171      0.489902     -1.296540
C       0.545812      0.812700     -0.020106
C       1.588804     -0.127312      0.519450
C       0.763014     -0.882738     -0.574305
C      -0.644160     -0.959894     -0.115266
C      -1.495404      0.301782      0.087391
N      -0.585495      1.453055      0.458017
H       1.460353     -0.503925      1.527093
H       2.618584      0.172429      0.289537
H       1.241207     -1.668651     -1.173775
H      -0.943504     -1.838623      0.446534
H      -2.128092      0.133220      0.957862
H      -2.139239      0.576094     -0.759572
H      -0.794742      2.298279     -0.068430
