12
Extracted from Q-Chem output
C       1.565993     -0.168101      0.138510
C       0.112692      0.094406      0.006980
C      -0.775693      1.314045      0.045354
O      -1.929094      0.429657     -0.180431
C      -1.021950     -0.582439     -0.192341
O      -1.481150     -1.817342     -0.376932
H       1.954220      0.150141      1.110063
H       1.778011     -1.235078      0.039604
H       2.146658      0.348360     -0.630864
H      -0.744961     -2.433343     -0.358549
H      -0.691469      2.026207     -0.776806
H      -0.887062      1.826101      1.002274
