13
Extracted from Q-Chem output
O       1.673925     -1.945638     -0.085203
C       1.264229     -0.868180     -0.456109
N       1.262880      0.290217      0.378230
C       0.149255      0.991190      0.573237
C      -1.176889      0.342798      0.572453
C      -1.000140     -0.382761     -0.705168
H       1.156599     -0.553392     -1.498106
H       2.129593      0.563350      0.820792
H       0.274139      2.063506      0.735478
H      -1.302370     -0.298283      1.449540
H      -1.973711      1.090852      0.577524
H      -1.229918      0.162606     -1.610948
H      -1.129027     -1.454833     -0.747283
