13
smiles: [C:1]([H:7])([H:8])([H:9])[H:12].[C:2]1([C:5]#[N:6])=[C:4]([H:13])[C:3]1([H:10])[H:11]
C       -1.72549200      -1.31896000       0.51221900
C        0.80763100       0.91940500      -0.63201800
C        1.55868200       0.66515700       0.64399800
C        1.87597800       0.20758000      -0.74469200
C       -0.30940800       1.52966600      -1.22069800
N       -1.23266700       2.03699900      -1.68031100
H       -2.40948800      -2.05507000       0.93193100
H       -1.52221000      -0.54776700       1.25360100
H       -2.17672600      -0.86586700      -0.36918500
H        1.15402400      -0.04524700       1.36117000
H        2.13532000       1.47500300       1.08481600
H       -0.79366700      -1.80743100       0.23135900
H        2.54730000      -0.34777100      -1.37516000
