18
Extracted from Q-Chem output
C       2.152967     -0.249947      0.110158
C       1.039183     -1.228164      0.449607
C      -0.347714     -0.633180      0.476177
C      -1.500969     -1.552363      0.779641
C      -0.979778      2.434475     -1.169014
C      -0.549288      0.641759      0.260458
N      -0.730993      1.840675      0.135425
H       2.009669      0.183095     -0.882568
H       3.122364     -0.750058      0.119677
H       2.191041      0.571786      0.827980
H       1.234191     -1.682378      1.428528
H       1.044167     -2.058481     -0.266296
H      -1.368694     -2.026463      1.756712
H      -2.450966     -1.019113      0.789918
H      -1.568426     -2.351711      0.035881
H      -0.982364      1.698775     -1.979077
H      -0.212067      3.184124     -1.363635
H      -1.941756      2.947565     -1.143093
