18
Extracted from Q-Chem output
C       2.130320     -0.023963      0.040592
C       0.976647     -0.996567      0.228953
C      -0.375944     -0.375767      0.450458
C      -1.557080     -1.303055      0.487224
C      -0.938259      1.789375     -1.266904
C      -0.491742      0.862998      1.014341
N      -0.665798      2.016042      1.177883
H       2.015558      0.552388     -0.879436
H       3.076263     -0.562874     -0.023367
H       2.201549      0.679492      0.872214
H       1.188717     -1.656238      1.081770
H       0.899470     -1.660831     -0.637030
H      -1.475219     -2.002357      1.327026
H      -2.497182     -0.762597      0.592226
H      -1.595980     -1.898609     -0.426791
H      -1.760969      1.339612     -0.755297
H       0.083247      1.689165     -0.974353
H      -1.147974      2.303310     -2.202105
