12
smiles: [H:10][H:11].[O:1]=[C:2]1[C:3]([H:8])([H:9])[C-:4]=[N+:5]=[C:6]([H:12])[O:7]1
O       -1.03206600       2.54063300       0.00168800
C       -0.32708100       1.59013800       0.03608100
C       -0.83587700       0.14409100       0.25453500
C        0.08621200      -0.65046200      -0.61332700
N        1.29923300      -0.51771000      -0.12307300
C        1.78565800       0.62212700       0.13371400
O        1.03683100       1.75251200      -0.07007900
H       -0.72424300      -0.04692900       1.33016300
H       -1.88345600       0.11294100      -0.02657700
H       -1.05511000      -3.15340100      -0.96958500
H       -1.35858600      -3.76739900      -0.67753200
H        2.79252400       0.81254100       0.47575500
