15
Extracted from Q-Chem output
C       0.114082      1.628435      0.005122
C       0.176296      0.136693      0.316208
C       1.380412     -0.522340     -0.347440
C      -1.120466     -0.536605     -0.101161
O      -1.092255     -1.891584      0.310393
H       1.027361      2.131122      0.328365
H      -0.728113      2.111158      0.506349
H       0.006591      1.799543     -1.070218
H       0.264814      0.008044      1.400935
H       1.340138     -0.392730     -1.433584
H       2.312885     -0.077820      0.006844
H       1.408144     -1.591058     -0.135574
H      -1.232285     -0.463451     -1.193295
H      -1.969819     -0.013038      0.357707
H      -1.887784     -2.326371      0.002731
