12
Extracted from Q-Chem output
C      -1.688550     -0.402951      0.026029
C      -0.239012     -0.072313      0.001376
C       0.419088      1.095875      0.135006
N       1.767542      0.791802      0.025254
C       2.018299     -0.523392     -0.173257
N       0.755145     -1.021816     -0.183266
H      -2.278418      0.495024      0.203885
H      -1.919020     -1.119056      0.818333
H      -2.015338     -0.836685     -0.922094
H       0.045118      2.092935      0.294596
H       2.506585      1.466299      0.086864
H       0.577149     -2.000991     -0.313747
