16
Extracted from Q-Chem output
C       1.282498      0.938907     -0.531372
C       0.005825      0.194842     -0.470974
N       1.343279     -0.514342     -0.439637
C       1.115070     -0.817752      1.009094
C      -0.261873     -0.194589      0.941386
C      -1.338845     -0.193177      1.704181
C      -0.966246      0.104567     -1.601702
H       1.610039      1.535099      0.315277
H       1.577855      1.320440     -1.501716
H      -0.445615      0.161061     -2.558259
H       1.852409     -0.362556      1.674926
H       1.091340     -1.894586      1.175507
H      -2.275061      0.222045      1.349212
H      -1.324768     -0.612804      2.702803
H      -1.517782     -0.836420     -1.562173
H      -1.684773      0.926130     -1.554729
