16
Extracted from Q-Chem output
C       1.675333      1.105899     -0.314362
C       0.223994      0.841325     -0.395551
N       1.255478     -0.244884     -0.642414
C       0.860950     -0.862859      0.666190
C      -0.249259      0.154639      0.833890
C      -1.325445      0.257309      1.591334
C      -1.832676     -0.718267     -1.855180
H       2.131703      1.295668      0.652692
H       2.121748      1.631859     -1.149079
H      -0.398015      1.253192     -1.183103
H       1.666394     -0.869421      1.404035
H       0.497403     -1.879635      0.518087
H      -2.067418      1.024734      1.406921
H      -1.504074     -0.429176      2.410010
H      -0.890559     -1.159783     -2.237058
H      -2.111719     -1.411134     -1.036277
