14
Extracted from Q-Chem output
C      -2.198619      0.870698      0.775799
C      -0.723051      0.664169      0.858495
C       1.300745     -1.649586     -0.523164
O       1.501573     -0.418563     -1.193874
C       1.215165      0.689294     -0.445269
O      -0.215079      0.868787     -0.320486
H      -2.678200     -0.043376      1.137339
H      -2.460598      1.639493      1.508442
H      -2.578676      1.139843     -0.214233
H       0.240096     -1.834212     -0.332846
H       1.837943     -1.666358      0.430654
H       1.689337     -2.427749     -1.176763
H       1.610121      0.636142      0.575218
H       1.577801      1.559484     -0.989803
