17
Extracted from Q-Chem output
C       1.489666      0.441413     -0.690328
C       0.485991      0.393244      0.431060
C      -0.228636     -0.923115      0.651497
C      -1.029581     -1.467821     -0.580979
C      -2.035712     -0.416599     -0.740905
C      -0.127847      1.628829      0.916546
O       0.916326      0.996435      1.644116
H       2.229792     -0.353423     -0.572692
H       1.005895      0.317906     -1.661555
H       2.011300      1.397737     -0.686133
H       0.512852     -1.689092      0.891143
H      -0.890990     -0.829102      1.511882
H      -1.459711     -2.420529     -0.266351
H      -0.327494     -1.627580     -1.407568
H      -1.599088      0.353333     -1.408181
H      -1.107931      1.595429      1.385049
H       0.138172      2.575039      0.453041
