12
smiles: [N:5]#[C:6][H:12].[O:1]1[C@@:2]2([H:8])[C@@:3]([H:9])([C:4]1([H:10])[H:11])[O:7]2
O       -1.01173500       0.02671000       1.12434500
C       -1.41429800      -0.49947000      -0.11212100
C       -0.86049100       0.58286700      -0.89828900
C       -0.44016300       1.17529800       0.44013100
N        3.56791800      -1.31070000       0.79359900
C        2.52056300      -1.27020300       0.33610000
O       -0.29731300      -0.73450000      -0.92698600
H       -2.25976800      -1.17078400      -0.16256500
H       -1.13473300       1.05716500      -1.82850400
H       -0.98347400       2.08045300       0.71415100
H        0.63037700       1.27971600       0.61770000
H        1.54218900      -1.23270600      -0.09127600
