14
Extracted from Q-Chem output
O       1.329531     -0.339162      1.443277
C       0.411426     -0.097498      0.416044
C      -1.035146     -0.209307      0.851463
C      -0.765189      0.265496     -1.123341
C       0.245667      1.193207     -0.384634
C       0.257289     -0.886026     -0.883093
H       2.217830     -0.261267      1.088345
H      -1.393280      0.568190      1.525212
H      -1.384653     -1.210930      1.099353
H      -1.681166      0.047940     -0.237667
H       1.075241      1.442996     -1.047010
H      -0.136371      2.079084      0.121360
H      -0.114240     -1.909028     -0.833917
H       1.087981     -0.799835     -1.584375
