18
Extracted from Q-Chem output
C      -2.003638      0.459597     -0.950224
C      -1.478615     -0.040052      0.380918
N      -0.021664      0.178394      0.533557
C       0.480834     -0.193528      1.924765
C       0.814059     -0.615331     -0.373257
O       0.409183     -1.658380     -0.806040
C       2.156325     -0.022777     -0.697125
H      -3.084091      0.319836     -0.989617
H      -1.566389     -0.088507     -1.785350
H      -1.807757      1.526702     -1.086478
H      -1.640336     -1.109184      0.501832
H      -1.924472      0.467181      1.234857
H       0.512590     -1.285042      1.945114
H       1.492387      0.212032      2.009046
H       0.173118      1.167419      0.415613
H       2.167549      0.206919     -1.765221
H       2.929746     -0.765541     -0.510526
H       2.382279      0.876148     -0.126716
