16
Extracted from Q-Chem output
C      -1.949409     -0.546778      0.070999
C      -1.313453      0.614886      0.783451
N      -0.220879      0.445825      1.726965
C       0.047368      1.143529      0.455165
C       0.916989      0.578832     -0.572063
C       2.357085     -0.975742     -0.805900
O       1.032486     -0.737907     -0.712776
H      -2.463309     -0.204134     -0.829165
H      -2.690985     -1.019438      0.718832
H      -1.219697     -1.299281     -0.223441
H      -2.024314      1.369700      1.110228
H       0.141664     -0.501258      1.659545
H       0.194611      2.211955      0.571095
H       1.550799      1.190000     -1.196853
H       2.661683     -1.715385     -1.529864
H       3.003936     -0.517390     -0.079500
