16
Extracted from Q-Chem output
C      -2.212494     -0.343419      0.264618
C      -0.845411      0.194078      0.655361
N      -0.027035     -0.485242      1.522700
C      -0.034636      0.845573     -0.397965
C       1.238384      0.373873     -0.906452
C       2.377532     -0.169659     -0.136382
O       1.505906     -1.019485     -0.850287
H      -2.792533      0.385490     -0.305129
H      -2.769220     -0.615481      1.163642
H      -2.082319     -1.233289     -0.353556
H      -0.948343      1.203033      1.160731
H      -0.299995     -1.468218      1.563861
H      -0.301038      1.858131     -0.691662
H       1.496032      0.836924     -1.859495
H       3.373271     -0.074144     -0.562500
H       2.264752     -0.207545      0.941581
