17
smiles: [C:1]([C@@:2]1([H:11])[C:3](=[O:4])[C:5]([H:14])([H:15])[C@:6]1([O:7][H:17])[H:16])([H:8])([H:9])[H:10].[H:12][H:13]
C       -1.45255300       0.68363300       0.91918300
C       -0.05072300       0.93636200       0.41061100
C        1.08232200       0.02107600       0.87438000
O        1.34900500      -0.49062500       1.91805400
C        1.66359800      -0.06785800      -0.53412900
C        0.35163400       0.55503400      -1.04987600
O       -0.43840600      -0.46320000      -1.61683500
H       -2.17012800       1.37868300       0.47698100
H       -1.48715600       0.80983500       2.00169100
H       -1.76912400      -0.33547000       0.69354600
H        0.25920700       1.96883600       0.60761000
H       -0.51003700      -2.64838400      -0.15689700
H       -0.48516600      -3.03656100       0.47799300
H        2.53733900       0.57380000      -0.65785100
H        1.88541700      -1.06870200      -0.90240400
H        0.46047000       1.39755000      -1.73828100
H       -1.30855000      -0.11091900      -1.81499200
