11
Extracted from Q-Chem output
O      -1.909658     -1.576197      0.093963
C      -1.564649     -0.310499      0.009292
C      -0.272007      0.085488     -0.007177
C       0.325444      1.386529     -0.093324
N       1.620810      1.264317     -0.075597
C       1.822327     -0.109793      0.021596
N       0.758463     -0.848373      0.065701
H      -2.403806      0.373101     -0.045867
H      -0.175344      2.343759     -0.162056
H       2.823554     -0.518316      0.056645
H      -1.085592     -2.093186      0.136503
