11
Extracted from Q-Chem output
O      -1.685425     -1.595669      0.097286
C      -1.676331     -0.334401      0.010251
C      -0.391052      0.223176     -0.018927
C       0.333561      1.415811     -0.095229
N       1.633544      1.133150     -0.065292
C       1.695309     -0.218327      0.028292
N       0.520308     -0.806659      0.059482
H      -2.617458      0.209451     -0.033250
H      -0.035994      2.428394     -0.168374
H       2.630469     -0.757190      0.071848
H      -0.467391     -1.700905      0.113593
