15
smiles: [C:1](=[C:2]1[C:3]([H:11])([H:12])[O:4][C@:5]1([C:6][O:7][H:15])[H:13])([H:8])[H:9].[H:10][H:14]
C       -1.23152800       1.27279600       0.30742100
C       -0.22508900       0.50065200       0.65566100
C        0.18515500      -0.29504200       1.86606100
O        1.34331500      -0.80074200       1.16119200
C        1.00528400      -0.03966900      -0.03369000
C        0.68250300      -0.87762900      -1.24908700
O        0.81454600      -2.12674000      -0.95015100
H       -2.03467700       1.49132700       1.00077300
H       -1.28378600       1.70872100      -0.68188300
H       -1.23904800       0.97761500      -3.65196000
H       -0.49533900      -1.09535300       2.16888300
H        0.48269800       0.28948700       2.73976800
H        1.78367500       0.68576600      -0.28641700
H       -0.81031100       0.53769100      -3.23123200
H        1.09655900      -2.22170100      -0.00560000
