16
Extracted from Q-Chem output
C       1.805445      0.093982     -0.226141
C       0.356834      0.273990      0.214667
C      -0.360752      1.302486     -0.655424
C      -1.757529     -0.971621      0.800961
O      -2.765841     -1.369200      0.285729
C      -0.382879     -1.068884      0.202837
H       2.341425      1.044922     -0.205733
H       1.853871     -0.292779     -1.247794
H       2.338056     -0.605551      0.421590
H       0.360949      0.643532      1.247823
H      -0.391817      0.971215     -1.697141
H       0.152218      2.265576     -0.625593
H      -1.796220     -0.487042      1.802493
H      -1.391773      1.463746     -0.332279
H       0.175832     -1.793978      0.807341
H      -0.465934     -1.470590     -0.810003
