11
Extracted from Q-Chem output
N      -0.661058      0.855228     -0.717154
C      -1.242639      0.518410      0.392176
O      -0.652999     -0.224903      1.273278
C       0.511569     -0.947026      0.748491
C       1.359310      0.002137     -0.039393
C       0.797777      0.908883     -0.851304
H      -1.196620      1.401578     -1.371943
H      -2.211229      0.909854      0.685423
H       0.098127     -1.762855      0.144064
H       0.992494     -1.361850      1.630698
H       2.432031     -0.021176      0.106424
