16
Extracted from Q-Chem output
C       1.764777     -0.144652     -1.325245
N       0.780403      0.261235     -0.346244
C       1.079718      0.870997      0.753137
O       0.168897      1.312790      1.485954
C      -1.337246      0.669879      0.082532
C      -1.725364     -0.709227      0.461595
O      -1.307576     -1.696922     -0.434522
H       1.753317     -1.227397     -1.483930
H       1.560945      0.328568     -2.289237
H       2.779465      0.135273     -1.024532
H       2.127988      1.003007      1.053519
H      -1.763367      1.453877      0.689808
H      -1.320582      0.890192     -0.975079
H      -1.411990     -0.913463      1.491129
H      -2.825013     -0.714369      0.455957
H      -0.362092     -1.546720     -0.549655
