12
Extracted from Q-Chem output
C       1.132202     -0.375501     -0.508433
C       0.354109      0.827134     -0.086925
C      -1.097728      0.415319     -0.312801
O      -1.139341     -0.862089     -0.860666
C      -0.015038     -1.356169     -0.149485
C      -0.454660      0.185190      1.009799
H       2.007179     -0.563820      0.111640
H       1.397474     -0.459560     -1.563791
H       0.651434      1.869401     -0.101242
H      -1.897714      1.103759     -0.552839
H      -0.275248     -1.256107      1.029364
H      -0.676235      0.494530      2.023515
