18
Extracted from Q-Chem output
C      -1.468831      1.297686     -0.236789
C      -0.614588      0.173542      0.343439
C      -1.139073     -1.190970     -0.096948
C       0.860840      0.383746     -0.008926
C       1.799971     -0.613254      0.652209
O       0.975880      0.326631     -1.425659
H      -1.112038      2.276971      0.091535
H      -1.439503      1.278705     -1.327462
H      -2.509475      1.196608      0.078101
H      -0.673449      0.231457      1.436962
H      -0.623554     -2.012703      0.402936
H      -2.201786     -1.282453      0.136450
H      -1.016919     -1.319596     -1.173781
H       1.132513      1.394196      0.331883
H       2.841822     -0.365594      0.431838
H       1.611897     -1.625329      0.291514
H       1.681099     -0.600909      1.737924
H       1.895193      0.451268     -1.665225
