13
Extracted from Q-Chem output
C      -0.887626     -0.444272     -0.711824
N      -1.110398      0.629779      0.265113
C       0.198914      1.218082      0.509519
C       1.228856      0.121529      0.246636
O       2.401665      0.177629      0.492052
C       0.485277     -1.042282     -0.392066
H      -1.701645     -1.166603     -0.670342
H      -1.469556      0.233991      1.123451
H      -0.887314     -0.007624     -1.714972
H       0.393757      2.033174     -0.197683
H       0.299874      1.627664      1.514080
H       1.040049     -1.435110     -1.243423
H       0.409851     -1.839639      0.353653
