11
Extracted from Q-Chem output
C      -1.588887      0.453057      0.305869
C      -0.146116      0.168632      0.073749
N       0.312751     -1.072676      0.215657
O       1.626950     -1.126854     -0.035999
C       1.926676      0.189381     -0.345243
C       0.886119      1.061076     -0.302401
H      -2.160376     -0.429994      0.597309
H      -1.682053      1.211638      1.082951
H      -2.017853      0.871276     -0.604859
H       2.977922      0.290717     -0.576197
H      -0.110759     -1.948240      0.472285
