11
Extracted from Q-Chem output
C      -1.604566      0.350055      0.283620
C      -0.144514      0.034434      0.169219
N       0.202990     -1.280849     -0.258926
O       1.476784     -1.210989     -0.523360
C       1.921202      0.092818     -0.313738
C       0.970983      0.943122      0.145124
H      -2.206444     -0.546135      0.433326
H      -1.765079      1.052152      1.098780
H      -1.922326      0.832428     -0.641168
H       2.970491      0.187147     -0.552619
H       0.124852     -0.786169      1.042863
