13
Extracted from Q-Chem output
O       0.805939      1.060538      0.298518
C       2.166613     -0.015890      0.311432
C       1.299542     -1.156008      0.376046
C       0.213614     -0.428165      0.433096
C      -1.263463     -0.461326      0.452901
C      -1.867099      0.036144     -0.843238
O      -2.751270      0.842433     -0.904285
H       0.705916      1.557923      1.122123
H       2.734017      0.283079      1.192257
H       2.658869      0.240309     -0.624264
H      -1.697655      0.097991      1.285093
H      -1.535155     -1.515242      0.569352
H      -1.425890     -0.407331     -1.758967
