13
Extracted from Q-Chem output
C       1.214113     -0.548617     -0.342295
C       1.267009      0.519581      0.738921
C       0.117936      1.185656      0.053847
C      -0.142730     -0.064411     -0.857521
C      -1.189401     -0.516671      0.162449
N      -0.749300      0.547829      1.064640
H       1.382448     -1.601944     -0.103310
H       2.004276     -0.213198     -1.027287
H      -0.385252      0.385030      1.997773
H      -0.030505      2.243734     -0.145191
H      -0.387091     -0.069692     -1.917904
H      -1.093414     -1.537940      0.539173
H      -2.220170     -0.337746     -0.151994
