13
Extracted from Q-Chem output
C       1.180737     -0.533072     -0.270650
C       1.072002      0.528815      0.824727
C       0.001081      1.210929      0.022228
C      -0.143757     -0.063553     -0.878024
C      -1.198620     -0.515031      0.122755
N      -0.740110      0.513894      1.084144
H       1.308154     -1.585268     -0.006373
H       2.023178     -0.211483     -0.888045
H       0.169298      0.282629      1.811379
H      -0.162271      2.265231     -0.170252
H      -0.333573     -0.104974     -1.948129
H      -1.173714     -1.546756      0.481882
H      -2.214485     -0.249748     -0.174339
