17
Extracted from Q-Chem output
C       1.581464     -1.283883     -0.193461
C       0.392621     -0.370776     -0.098921
C      -1.055946     -0.902060     -0.000164
C      -1.420355      0.432382     -0.627451
C      -0.646012      1.529198      0.127385
C       0.388844      0.760806      0.932945
C      -0.103385      0.490956     -1.346456
H       1.714996     -1.846264      0.734768
H       1.462280     -2.000607     -1.008087
H       2.492499     -0.711779     -0.380913
H      -1.444923     -1.175756      0.984698
H      -1.233135     -1.716731     -0.703701
H      -2.373623      0.706655     -1.067346
H      -1.209071      2.397032      0.460532
H       0.097503      0.461839      1.943353
H       1.344866      1.286005      0.976070
H       0.028952      1.952193     -0.734249
