16
Extracted from Q-Chem output
C      -1.517398      1.006411      0.849700
C      -1.889743     -0.400844      0.431619
N      -0.964760     -0.831090     -0.765327
C       0.458544     -0.865177     -0.477901
O       0.995267     -1.810215      0.014836
O       0.998509      0.300646     -0.784386
C       2.368994      0.463964     -0.397280
H      -1.699109      1.733943      0.049404
H      -2.196626      1.277750      1.660828
H      -0.494493      1.189465      1.224792
H      -1.596763     -1.119231      1.206878
H      -1.268081     -1.766334     -1.014835
H      -1.164128     -0.195168     -1.532315
H       2.630142      1.481020     -0.673310
H       2.471922      0.317880      0.676903
H       2.995099     -0.253312     -0.926304
