13
Extracted from Q-Chem output
C       0.144353     -1.410941      0.852955
C      -1.815502      0.676480     -0.106352
C      -0.689920      1.236809     -0.769096
C       0.564587      0.749194     -0.572688
C       1.080919     -0.408688      0.202585
H       0.737902     -2.205256      1.311728
H      -0.479732     -0.944303      1.612066
H      -0.535529     -1.851407      0.125867
H      -2.652763      1.388744     -0.222504
H      -0.749461      2.126701     -1.401737
H       1.371563      1.314214     -1.042480
H       1.762175     -0.926399     -0.486953
H       1.762099      0.018337      0.952290
