13
Extracted from Q-Chem output
C       1.673195     -0.203911     -0.346440
C       0.378893     -0.296842      0.454666
C      -0.471575      0.936069      0.417818
C      -1.671925      0.591186     -0.052692
C      -1.602583     -0.850360     -0.318433
N      -0.468409     -1.371502     -0.045920
H       2.203645     -1.154658     -0.305908
H       1.453279      0.023459     -1.390845
H       2.321051      0.578590      0.051483
H      -0.142360      1.919477      0.724085
H      -2.531462      1.225924     -0.214529
H      -2.417860     -1.451376     -0.710703
H       0.622899     -0.542370      1.496698
