15
Extracted from Q-Chem output
O       2.414710      0.774248      0.851012
C       1.621361      0.157688     -0.136893
C       0.358608     -0.413755      0.456505
O      -0.485553      0.611548      1.026042
C      -1.647335      0.127486      0.378775
C      -1.298123     -0.159021     -1.563738
C      -0.767574     -0.908903     -0.475331
H       1.899334      1.484720      1.241126
H       1.374936      0.859445     -0.941893
H       2.214952     -0.654029     -0.564140
H       0.608130     -1.147411      1.229501
H      -2.335693     -0.422737      1.021060
H      -0.738911      0.786764     -1.661557
H      -2.215013      0.904317     -0.152045
H      -1.065413     -1.950187     -0.385109
