10
Extracted from Q-Chem output
N       1.891686      0.539637     -0.444559
C       0.644186      0.075569     -0.830175
C      -0.475326      0.192233     -0.168111
C      -1.601204      0.177811      0.493464
N      -2.030650     -0.952604      1.309245
O      -1.193702     -1.781808      1.515622
H       2.665585      0.026196     -0.829794
H       1.998691      0.716578      0.540822
H       0.599296     -0.369901     -1.819873
H      -2.340874      0.968905      0.463905
