12
Extracted from Q-Chem output
C      -1.714984     -0.168662      0.120523
N      -0.312217     -0.141016      0.282974
C       0.747071     -0.928577      0.413904
C       1.811986     -0.199151     -0.166636
N       1.440562      0.991336     -0.600223
C       0.117819      1.091809     -0.238789
H      -1.139150      1.182325     -0.653764
H      -1.997427     -0.463091     -0.883916
H      -2.276079     -0.665532      0.907617
H       0.690289     -1.958629      0.726408
H       2.822505     -0.563637     -0.297572
H      -0.088612      1.925868      0.433815
