12
Extracted from Q-Chem output
O      -0.356459      0.201351      1.622453
C      -1.317591     -0.143438      0.368901
C      -0.676875      0.915188     -0.542663
C       0.598466      0.031324     -0.505869
C      -0.341915     -1.171390     -0.225429
C       0.822622      0.317480      1.139865
N       1.999446      0.485639      1.002579
H      -1.053111      0.888133     -1.569541
H      -0.638674      1.944615     -0.192341
H       1.398560      0.047699     -1.246892
H      -0.007430     -1.992398      0.405205
H      -0.660941     -1.558296     -1.197738
