19
smiles: [C:1]([C:2](=[O:3])[H:12])([H:8])([H:9])[H:10].[C:4](=[C:5]([C:6]([C:7]([H:11])([H:18])[H:19])([H:16])[H:17])[H:15])([H:13])[H:14]
C        2.03875300       1.00231600       0.54430700
C        2.66707800      -0.12454800      -0.21840900
O        2.11671300      -1.15658100      -0.48616700
C       -1.11323800      -0.98710400       1.49373400
C       -1.83250500      -0.54366000       0.47447700
C       -1.45220400      -0.66314500      -0.96954100
C       -1.30537700       0.69827900      -1.64764900
H        2.63667800       1.21641200       1.43409800
H        2.04951300       1.90717500      -0.06909900
H        1.01777400       0.75471400       0.82811700
H       -0.51637900       1.28496900      -1.17338900
H        3.71637100       0.04766600      -0.53999300
H       -0.16674800      -1.49594500       1.34033600
H       -1.44112400      -0.86055600       2.51845200
H       -2.77386200      -0.03511400       0.67683600
H       -0.51963600      -1.22736100      -1.05404100
H       -2.21950000      -1.24282000      -1.49387100
H       -1.05799500       0.58599400      -2.70474000
H       -2.23248000       1.27250500      -1.58199100
