15
Extracted from Q-Chem output
C       2.076456      0.516985      0.622876
C       0.824096     -0.273515      0.652917
C       0.337760     -1.179700     -0.264823
C      -1.052561     -1.613324      0.286561
C      -0.918366     -0.197498      0.479449
O      -0.133830      0.118042      1.607984
C      -1.574637      0.916667     -0.251106
H       1.863719      1.557641      0.366202
H       2.753475      0.094884     -0.116691
H       2.541212      0.509904      1.610883
H      -1.024359     -2.214530      1.191036
H      -1.733065     -1.970238     -0.475965
H      -2.468741      1.224754      0.296605
H      -0.909390      1.776163     -0.333977
H      -1.872590      0.590384     -1.246016
