12
smiles: [C:6](=[O:7])([H:9])[H:12].[O:1]=[C:2]([C:3]1=[N:5][C:4]1([H:10])[H:11])[H:8]
O        1.62169900      -0.86690600      -1.58668700
C        1.36014700      -0.14097400      -0.67273500
C        0.18566700       0.76656000      -0.67719400
C       -0.45032200       2.03055500      -0.36280400
N       -1.02594900       0.76207400      -0.96928400
C       -0.74394300      -1.72213700       1.15735800
O       -0.01116900      -0.90105200       1.62504900
H        1.98544400      -0.08305600       0.23683600
H       -0.83956000      -1.86663200       0.06400900
H       -0.32141400       2.87180500      -1.03533300
H       -0.76731300       2.26732800       0.64751400
H       -1.36654500      -2.38128600       1.79235000
