9
Extracted from Q-Chem output
O       2.173057      0.023475     -0.399908
C       0.858078     -0.024301     -0.149285
N       0.274879     -1.171323      0.119372
O      -1.014563     -0.988031      0.332471
C      -1.248884      0.442057      0.176674
C      -0.008648      1.106658     -0.146274
H       2.535569     -0.866766     -0.343365
H      -2.002777      0.568068     -0.607714
H      -1.678007      0.807565      1.115868
