14
smiles: [C:5]1([H:11])=[C:7]([H:14])[C:6]1([H:12])[H:13].[N:1](=[C:2])[H:8].[O:3]=[C:4]([H:9])[H:10]
N        2.14339500      -1.41334100       0.22589300
C        1.95937200      -2.19746900       1.06408700
O        2.26489700       0.66958000      -1.62793100
C        1.37931300       1.45553300      -1.46073400
C       -1.97067200       0.49198100       0.07822900
C       -1.81103600      -0.42574600      -1.09815600
C       -1.33139600      -0.59728600       0.31306500
H        2.30195100      -0.74195200      -0.49256500
H        1.27638800       2.36331900      -2.08590000
H        0.61552000       1.31632500      -0.67186600
H       -2.36987900       1.42817500       0.42546100
H       -1.09670000      -0.17644700      -1.88175000
H       -2.66486600      -1.00312100      -1.45029000
H       -0.80202500      -1.23495800       0.99818400
