14
Extracted from Q-Chem output
N       2.075169     -1.869681     -0.080047
C       1.241142     -1.063071     -0.164767
O       1.519122      0.860564     -1.313808
C       0.627153      1.669576     -1.066453
C      -1.141605      0.658576     -0.177714
C      -1.437343     -0.480491     -1.092675
C      -0.766827     -0.554757      0.231590
H       2.921063     -2.389454     -0.157883
H      -0.077740      1.983950     -1.849975
H       0.689955      2.323504     -0.182506
H      -1.633382      1.519477      0.238475
H      -0.816808     -0.586594     -1.985525
H      -2.440216     -0.892321     -1.193636
H      -0.794280     -1.188818      1.100359
