14
Extracted from Q-Chem output
O      -2.096085     -0.661378      1.006027
C      -1.308124     -0.147463     -0.021991
C      -0.304279      0.984748      0.310512
O       2.612532      1.385207      0.013414
C       2.057131      0.383680     -0.377965
N       0.727640      0.187111     -0.334499
C      -0.106317     -0.994942     -0.519527
H      -1.542163     -0.855573      1.765821
H      -1.993241      0.117117     -0.825249
H      -0.479899      1.958095     -0.148009
H      -0.133007      1.122964      1.383310
H       2.597372     -0.470333     -0.828314
H      -0.161891     -1.367705     -1.543502
H       0.139725     -1.820156      0.156769
