14
Extracted from Q-Chem output
O      -0.240135     -1.254314      0.820594
C      -0.728056     -0.611546     -0.396333
C      -1.194472      0.833418     -0.203485
N       0.120581      1.321269     -0.685906
C       0.625144     -0.046565     -0.816658
C       1.258909     -0.649360      0.471026
O       1.345237      0.079134      1.547306
H       0.141521     -0.431167      1.601463
H      -1.318186     -1.310626     -0.980861
H      -1.448434      1.083326      0.829981
H      -2.015623      1.135880     -0.855903
H       0.634379      1.856517      0.004593
H       1.136684     -0.287707     -1.747519
H       1.956996     -1.483678      0.332025
