11
Extracted from Q-Chem output
O       1.444729      0.447986      1.543395
C       0.710455      0.186905      0.621134
C       1.180105     -0.556602     -0.604306
C      -1.415328      1.129012     -0.674004
N      -1.689171      0.002947     -0.151170
C      -0.705883      0.637816      0.662275
H       2.249098     -0.736160     -0.523447
H       0.656748     -1.511129     -0.699581
H       0.962973      0.019857     -1.507011
H      -2.281348     -0.808874     -0.229971
H      -1.023687      1.084985      1.597341
