14
Extracted from Q-Chem output
C      -2.113559      0.577626     -0.020365
C      -0.823583     -0.183419     -0.134976
N       0.345010      0.654673     -0.108361
C       1.475623     -0.089228     -0.066635
N       1.521404     -1.367717     -0.212789
C       2.687987      0.706642      0.125707
N       3.672614      1.275966      0.274561
H      -2.126892      1.422719     -0.706387
H      -2.150787      0.972244      0.995454
H      -2.982561     -0.058910     -0.185203
H      -0.959264     -0.850198     -1.245930
H      -0.727772     -1.112441      0.439506
H      -0.280663     -0.188400     -1.248839
H       2.468001     -1.723479     -0.162257
