13
Extracted from Q-Chem output
C       2.903892     -0.436122      0.011898
C       1.848718      0.127470     -0.013498
C       0.557816      0.813059     -0.067504
N      -0.460026      0.095999      0.682295
C      -1.116354     -0.983781     -0.025225
C      -1.821455      0.294033      0.227148
H       3.842329     -0.937186      0.041622
H       0.661334      1.810983      0.366066
H       0.277881      0.946065     -1.125264
H      -1.342374     -1.862258      0.566270
H      -0.800244     -1.185554     -1.045113
H      -2.570870      0.366977      1.005785
H      -1.980645      0.950315     -0.624480
