10
Extracted from Q-Chem output
C      -1.066796      0.792494      0.072852
O      -0.432707      0.379320     -0.980149
C       0.633468     -0.415101     -0.862871
C       1.575974     -0.138405      0.162954
N       2.304458      0.093568      1.025370
H      -2.002424      1.288636     -0.143740
H      -0.513880      1.013791      0.979107
H      -1.086023     -0.919253      0.607555
H       0.982576     -0.798321     -1.809252
H      -0.459063     -1.345484      0.267896
