12
Extracted from Q-Chem output
O      -0.553844      0.777275     -1.539180
C      -0.021138      1.043606     -0.309436
C      -0.207189      0.153390      0.921817
C       0.049771     -1.269943      0.564529
O       1.176367     -1.009991     -0.143419
C       1.156089      0.365323      0.265038
H      -0.954525     -0.111310     -1.529044
H      -0.092299      2.094088     -0.045686
H      -0.639905      0.508230      1.844064
H      -0.831951     -1.981310     -0.004529
H      -1.314399     -1.540862     -0.700034
H       2.077189      0.781460      0.645131
