11
Extracted from Q-Chem output
C      -1.428978     -0.094471     -0.120351
C      -0.021039      0.171899      0.250189
O       0.270481      0.690431      1.397134
C       1.176409     -0.071313     -0.520143
O       2.248425      0.367161      0.016503
H      -1.952776     -0.630016      0.671033
H      -1.479838     -0.661793     -1.049163
H      -1.928735      0.865523     -0.265180
H       1.071163     -0.275490     -1.593177
H       0.731762     -1.162203     -0.042187
H       1.287020      0.822820      1.258211
