16
Extracted from Q-Chem output
C       2.270210      0.078696      0.422397
C       1.570963      1.177427     -0.250652
C       0.102809      1.152225     -0.124179
C      -0.663827     -0.047140      0.389828
C      -2.084470     -0.252673     -0.038598
C      -1.008329     -1.161741     -0.554057
H       1.778316     -0.430471      1.259887
H       3.315668      0.293033      0.642269
H       2.280105     -0.645745     -0.415728
H      -0.001383      2.009190      0.572877
H      -0.350947      1.546124     -1.040945
H      -0.439169     -0.346180      1.407290
H      -2.788745     -0.647761      0.681468
H      -2.508464      0.467289     -0.728313
H      -0.712770     -1.051129     -1.590563
H      -0.975164     -2.178883     -0.186506
