16
Extracted from Q-Chem output
C       1.959806     -0.146595      0.249086
C       0.848673      0.326561     -0.650181
C       0.046310      1.430588     -0.061824
C      -0.677635      0.241523      0.450095
C      -1.922984     -0.346686     -0.103061
C      -0.724525     -1.058937     -0.627578
H       1.847036      0.053088      1.328585
H       2.848109      0.398301     -0.087192
H       2.182656     -1.205981      0.109059
H       0.501788      1.995278      0.752907
H      -0.500934      2.072964     -0.749304
H      -0.389187     -0.097809      1.435153
H      -2.545114     -0.865080      0.615651
H      -2.478522      0.254357     -0.813110
H      -0.586052     -1.074302     -1.692615
H      -0.442702     -1.975832     -0.126349
