16
Extracted from Q-Chem output
C      -0.860092      1.848445     -0.066875
C      -0.521064      0.398081     -0.002847
C       0.565480     -0.197980     -0.832295
C       1.820607     -0.417127     -0.099129
C       2.828029     -0.583092      0.527113
C      -0.928486     -1.666538      1.205850
N      -1.122110     -0.388397      0.873657
H      -0.044871      2.485023      0.297438
H      -1.740352      2.076817      0.540075
H      -1.080902      2.166509     -1.090976
H       0.768473      0.451730     -1.686542
H       0.228009     -1.164713     -1.235576
H       3.723979     -0.731133      1.081776
H      -1.607845     -2.104864      1.915166
H      -0.073017     -2.195416      0.824038
H      -1.876794      0.060864      1.376326
