16
Extracted from Q-Chem output
C      -0.537256      1.693173      0.265570
C      -0.567668      0.221569      0.020423
C       0.516431     -0.403529     -0.821265
C       1.849278     -0.365345     -0.216871
C       2.935769     -0.313845      0.284346
C      -1.110362     -1.377737      1.240785
N      -1.661229     -0.478339      0.369782
H       0.196400      2.204478     -0.358349
H      -0.288904      1.908828      1.310460
H      -1.529634      2.123427      0.084694
H       0.574732      0.134782     -1.779539
H       0.246945     -1.438651     -1.034167
H       3.899750     -0.278878      0.733404
H      -1.310221     -2.440542      1.146789
H      -0.552724     -1.006703      2.087714
H      -2.621093     -0.157684      0.301471
