15
Extracted from Q-Chem output
O       1.730435      0.949294      0.925388
C       1.978352     -0.183472      0.139226
C       0.860289     -1.182268      0.011121
O      -0.771476      1.454295     -0.037974
C      -1.239251      0.195941      0.427187
C      -1.918762      0.902133     -0.661895
C      -0.451310     -1.031910      0.147888
H       1.033545      1.463439      0.505014
H       2.308494      0.094084     -0.873860
H       2.824986     -0.695219      0.603922
H       1.205588     -2.182388     -0.240763
H      -1.701298      0.245786      1.411398
H      -2.844510      1.435760     -0.470761
H      -1.765822      0.559916     -1.681046
H      -1.073171     -1.917382      0.041917
