15
Extracted from Q-Chem output
C      -2.007883      0.332271      0.303182
C      -1.260460     -0.487946     -0.738161
N      -0.143234      0.236984     -1.338697
C       1.085518      0.395539     -0.863353
O       1.179552     -0.240097      0.306462
C       2.452382     -0.180389      0.932017
H      -2.843434     -0.238956      0.712408
H      -2.405300      1.250813     -0.132761
H      -1.341941      0.603034      1.122435
H      -0.870040     -1.401806     -0.290485
H      -1.932089     -0.781467     -1.547221
H      -0.311461      0.702630     -2.212127
H       3.129023      0.421644      0.326256
H       2.840436     -1.194722      1.035922
H       2.333494      0.264266      1.921136
