15
Extracted from Q-Chem output
C      -1.802190      0.520409      0.298547
C      -1.253963     -0.435035     -0.751737
N       0.070362     -0.053801     -1.227189
C       1.235594     -0.486388     -0.716120
O       1.138998     -1.292171      0.296531
C       2.204418      0.065793      0.752355
H      -2.805011      0.219009      0.608402
H      -1.858335      1.540534     -0.087419
H      -1.161596      0.523351      1.181780
H      -1.180495     -1.441094     -0.338190
H      -1.920338     -0.482928     -1.615296
H       0.133451      0.554933     -2.023074
H       2.024883      1.120433      0.544031
H       3.204256     -0.241638      0.485642
H       1.945322     -0.143406      1.791740
