12
Extracted from Q-Chem output
N       1.454358      1.095541      1.441333
C       1.109589      1.117541      0.194792
C      -2.175176     -0.958249     -0.701574
C      -1.081864     -0.221588     -0.726998
O       0.149721     -0.805791     -0.920362
C       1.269335     -0.187665     -0.475640
O       2.348521     -0.657234     -0.711846
H       1.468296      1.952085      1.974625
H       1.787858      0.268334      1.930278
H      -3.138534     -0.479498     -0.602247
H      -2.132135     -2.035448     -0.796144
H      -1.069947      0.860263     -0.645017
