12
Extracted from Q-Chem output
N       0.759850      1.361261      0.787296
C       0.516310      0.585670     -0.247231
C      -1.451226     -0.088302     -0.610676
C      -0.826044     -1.114246     -0.003758
O       0.245081     -1.690595     -0.661306
C       1.189413     -0.692279     -0.444497
O       2.366941     -0.890670     -0.493599
H       0.571495      2.347407      0.735046
H       1.196861      1.036324      1.638354
H      -2.195749      0.481006     -0.067762
H      -1.389157      0.056755     -1.678111
H      -0.975300     -1.412998      1.027607
