10
smiles: [C:3](=[O:4])([H:9])[H:10].[O:1]([C:2](=[C:5]=[O:6])[H:8])[H:7]
O       -1.22487000      -0.85553600       0.22648500
C       -0.15980700      -1.06811700      -0.63134200
C        0.11232700       1.92158100       0.47719700
O        1.02230500       2.61019000       0.11985200
C        0.98299600      -1.53303000      -0.16882900
O        1.99675100      -1.93373200       0.22106400
H       -1.86427200      -1.56075500       0.10294800
H       -0.21225400      -0.75507000      -1.66636800
H        0.16512700       1.31409800       1.40095300
H       -0.83247500       1.85614900      -0.09572100
