19
Extracted from Q-Chem output
C       1.897677     -0.365114     -0.376760
C       0.583771     -0.157264     -1.073050
O      -0.277279     -0.342149      2.377190
C       0.466024      0.627324     -2.137856
C      -0.817210      0.664480      1.534868
C      -1.513881     -0.000704      0.366410
C      -0.607591     -0.888737     -0.495117
H       2.676453      0.284834     -0.776372
H       2.222335     -1.403504     -0.491763
H       1.800927     -0.192014      0.697895
H       0.143489      0.075125      3.129443
H       1.313675      1.168218     -2.542698
H      -0.483976      0.750351     -2.647461
H      -1.539577      1.279289      2.085595
H      -0.025011      1.330675      1.168353
H      -1.945852      0.787215     -0.257374
H      -2.343360     -0.602240      0.748922
H      -1.209453     -1.302179     -1.307731
H      -0.263088     -1.731778      0.107604
