10
Extracted from Q-Chem output
O      -1.976583     -1.140394     -0.078876
C      -0.746712     -0.551985     -0.101103
C      -0.903854      0.877804      0.107141
N       1.608235      2.095118      0.403864
C       2.139327      1.088270      0.278026
N       0.336300     -1.190447     -0.224318
H      -2.590051     -0.569546      0.402611
H      -0.631547      1.446029     -0.790926
H       2.598577      0.131750      0.152522
H       0.169215     -2.191628     -0.149164
