11
Extracted from Q-Chem output
C      -1.332614     -0.309917     -0.999090
C      -0.667334      0.591116     -0.296888
O       0.828581      0.613203      1.600599
C       0.747850      0.452266      0.202689
C       1.365630     -0.821779     -0.223296
N       1.831322     -1.821519     -0.536809
H       0.252113     -0.034411      2.015921
H      -2.355630     -0.129274     -1.303966
H      -0.883484     -1.250094     -1.300297
H      -1.131765      1.527283     -0.003003
H       1.358302      1.258103     -0.213787
