11
Extracted from Q-Chem output
C      -1.300882     -0.344815     -0.433413
C      -0.430233      0.736913     -0.340480
O       0.350075      0.333988      1.420596
C       0.935902      0.464326      0.166008
C       1.590789     -0.744519     -0.372991
N       2.083413     -1.686802     -0.802634
H      -0.793769     -0.318175      0.800874
H      -2.365215     -0.167891     -0.492331
H      -0.924427     -1.282494     -0.831802
H      -0.767644      1.762741     -0.255709
H       1.629928      1.305846      0.092544
