14
Extracted from Q-Chem output
C       2.603440      0.263938      0.208209
N       1.169199      0.277809      0.399779
C       0.351232     -0.010223     -0.660445
O       0.746838     -0.173963     -1.782141
N      -1.010180     -0.044003     -0.284616
C      -1.988972     -0.492320     -1.097932
N      -3.183128     -0.387804     -0.531664
H       2.851991      0.852404     -0.672702
H       2.994502     -0.746683      0.061990
H       3.080156      0.712743      1.078720
H       0.828021      0.079835      1.323672
H      -1.217816      0.333289      0.638499
H      -3.987137     -0.694994     -1.045929
H      -3.363218     -0.006397      0.393874
