15
smiles: [C:1](/[C:2](=[N:3]\[H:12])[H:10])([H:7])([H:8])[H:9].[C:4](=[O:5])([C:6]([H:13])([H:14])[H:15])[H:11]
C       -2.72132500       0.80358100       0.29712900
C       -1.32903600       0.32234900       0.02389600
N       -0.35001800       0.99264800      -0.40743400
C        1.58203400      -1.26203200      -0.62878800
O        0.87282500      -2.10877100      -0.16002100
C        2.66360800      -0.54592100       0.12206200
H       -3.43828200       0.24307800      -0.30783300
H       -2.82966000       1.86722400       0.07991100
H       -2.98124700       0.62716600       1.34385600
H       -1.14766700      -0.73777600       0.22460500
H        1.45950100      -0.95792500      -1.69025500
H       -0.61866100       1.96534100      -0.56384000
H        2.45338200       0.52705300       0.12316600
H        3.61814400      -0.68088900      -0.39301000
H        2.73190800      -0.91404000       1.14393100
