15
Extracted from Q-Chem output
C      -1.875817      0.662564     -0.415190
C      -1.010689     -0.246515      0.395975
N      -0.034152      0.162631      1.215481
C       0.908833     -0.917355      0.232548
O       1.171069     -1.986010      0.737590
C       1.897709      0.032175     -0.425731
H      -2.356736      0.133644     -1.237247
H      -1.311182      1.509174     -0.806959
H      -2.660861      1.052259      0.240512
H      -1.415743     -1.230995      0.628628
H      -0.023506     -0.941977     -0.632865
H       0.218358      1.128999      1.036461
H       1.412024      0.878320     -0.911846
H       2.446242     -0.540110     -1.172716
H       2.599027      0.386296      0.330059
