14
smiles: [C:1](=[C:2]([H:10])[H:11])([H:7])[H:8].[C:3](=[O:4])([H:12])[H:13].[C:5](=[O:6])([H:9])[H:14]
C       -1.90963200      -0.03758800      -0.08795200
C       -1.70533900       0.84478100       0.87496200
C        1.11268600      -0.93424700       1.37981500
O        1.84665000       0.00513900       1.28635900
C        1.93442500       0.35231000      -1.38072700
O        1.20811700      -0.52695200      -1.74019400
H       -2.81959600      -0.62469900      -0.13708200
H       -1.17538100      -0.21016600      -0.86664900
H        1.55334700       1.36008800      -1.12688200
H       -2.43958000       1.01740200       1.65366900
H       -0.79541100       1.43195000       0.92414300
H        0.73883000      -1.29106600       2.35889300
H        0.76705500      -1.49791000       0.49188500
H        3.02704300       0.20557700      -1.28099900
