14
Extracted from Q-Chem output
C      -1.139232      0.669029     -0.445576
C      -1.195374      0.224524      0.849298
C       0.788701     -0.448564      1.346404
O       1.569091      0.192688      0.591121
C       1.321996     -0.267242     -0.970794
O       0.991696     -1.433814     -1.123566
H      -1.411635      0.010460     -1.262037
H      -1.103656      1.730857     -0.662974
H       0.419373      0.533113     -0.964202
H      -1.612145     -0.753507      1.052254
H      -1.250278      0.951140      1.650306
H       0.717376     -0.114576      2.377655
H       0.566183     -1.485320      1.092219
H       2.215234      0.186916     -1.428024
