8
Extracted from Q-Chem output
O      -1.506386      1.184654      0.247065
C      -0.935468     -0.057409      0.222068
C       0.354464     -0.286253      0.054177
C       1.649095     -0.204898     -0.370821
H      -0.877669      1.836906     -0.069835
H      -1.644165     -0.850354      0.405179
H       0.765856     -1.384711     -0.078625
H       2.327520     -0.260805      0.497180
