13
smiles: [C-:4]#[O+:5].[C:1]([C:2]([C:3]([H:10])([H:11])[H:12])([H:9])[H:13])([H:6])([H:7])[H:8]
C       -1.27352900       0.40465000       0.44237600
C       -0.38835100       0.10992400      -0.76171700
C        0.34815000      -1.21790100      -0.63851600
C        2.49948100       1.64966100       0.99119300
O        2.13625100       1.22857300       1.96730300
H       -2.03300300      -0.37082900       0.57184400
H       -0.68459200       0.44134800       1.36251400
H       -1.78943400       1.36119500       0.33995400
H       -0.99697600       0.10664200      -1.67099800
H        0.98514200      -1.40740700      -1.50454000
H       -0.35453400      -2.05065700      -0.55263400
H        0.98307600      -1.23198200       0.25115600
H        0.33806400       0.91850100      -0.88732100
