13
Extracted from Q-Chem output
C      -1.274312      0.369802      0.407637
C      -0.095290      0.141972     -0.502348
C       0.554607     -1.212742     -0.382460
C       1.314305      1.342588      0.336844
O       1.466374      1.008932      1.446267
H      -2.068258     -0.363806      0.231418
H      -0.971013      0.267898      1.454571
H      -1.713103      1.362485      0.276809
H      -0.327594      0.393214     -1.545852
H       1.404732     -1.324799     -1.060794
H      -0.149927     -2.020460     -0.607514
H       0.911856     -1.374530      0.639497
H       0.947622      1.409443     -0.694075
