15
smiles: [C:4]([O:5][H:15])[H:13].[N:1]([C@@:2]([C:3]([H:11])([H:12])[H:14])([C:6]#[N:7])[H:10])([H:8])[H:9]
N       -2.25426900      -0.80271900       0.08675500
C       -0.84440700      -0.44669000      -0.00654000
C       -0.26716500      -0.93035400      -1.33343800
C        2.25754300       0.95071800       0.54934100
O        2.80024600       1.59050100       1.54640500
C       -0.71595500       1.01610700       0.10424600
N       -0.59929200       2.15224600       0.20670800
H       -2.35938900      -1.80742100       0.03903000
H       -2.65815900      -0.48569900       0.95770600
H       -0.23591200      -0.85952600       0.81117300
H       -0.82559400      -0.49935000      -2.16372900
H       -0.34236200      -2.01796100      -1.38835000
H        2.34018500       1.68480100      -0.28408300
H        0.78294200      -0.65407400      -1.42569800
H        2.77599900       1.02476500       2.32829200
