12
Extracted from Q-Chem output
O      -2.169851     -0.319615     -0.821127
C      -1.358900     -0.451440      0.300328
C       0.209862      1.479134      0.033508
N       1.486526      1.592472     -0.305175
N       1.980550      0.323315     -0.477696
C       1.061046     -0.584638     -0.263430
N      -0.034079      0.090275      0.063620
H      -2.262076      0.622409     -0.999458
H      -1.280048     -1.515826      0.522657
H      -1.759803      0.080652      1.165496
H       2.942426      0.172416     -0.729345
H       1.182300     -1.652810     -0.341065
