12
Extracted from Q-Chem output
O      -2.266757      0.971055     -0.555164
C      -1.691351     -0.180282      0.005995
C      -0.197257     -0.152001     -0.036374
N       0.453562      0.783674     -0.689391
N       1.737722      0.433839     -0.502022
C       1.803965     -0.676220      0.242560
N       0.596995     -1.080013      0.557011
H      -1.596677      1.409646     -1.087804
H      -2.035609     -1.083027     -0.514817
H      -2.014579     -0.268010      1.046752
H       2.477933      0.987562     -0.893285
H       2.732053     -1.146222      0.529698
