12
Extracted from Q-Chem output
O      -2.611566      1.004577     -0.245504
C      -1.803882      0.230204      0.133722
C      -0.275925      0.056624     -0.588241
C       0.210338      0.759023      0.554480
N       2.197888      0.008215      0.345728
C       2.035276     -1.011461     -0.188256
O      -0.063494     -1.213122     -0.679995
H      -1.977921     -0.639959      0.788981
H      -0.351848      0.662659     -1.502091
H       0.242738      1.843349      0.564504
H       0.210173      0.249725      1.510176
H       2.186293     -1.963771     -0.649111
