14
smiles: [C:1]([H:8])([H:9])([H:10])[H:14].[C:2]1=[C:3]([H:11])[N:4]([H:12])[C:5](=[O:6])[C:7]=1[H:13]
C       -1.89229600       0.43224700      -1.10698400
C        0.86382200      -0.10136600       2.06532500
C        1.01366500       0.91154300       1.08784700
N        1.43718800       0.42003500      -0.06930400
C        1.09219400      -1.00809300      -0.05309900
O        1.31112700      -1.73400200      -0.96943900
C        0.70379500      -1.24574100       1.37152900
H       -1.52740500       1.45814600      -1.09536100
H       -2.94623400       0.42451400      -1.38129400
H       -1.32377100      -0.14713600      -1.83277800
H        0.73523400       1.95548000       1.18320100
H        1.58898400       0.93334100      -0.92325700
H        0.67787600      -2.26233600       1.74061700
H       -1.77216800      -0.00734000      -0.11794300
