13
Extracted from Q-Chem output
N       2.672632     -1.079940      1.222527
C       1.897323     -0.337481      0.785847
C       0.978284      0.600661      0.275154
C       0.437781      0.492351     -1.160914
C      -0.951271      0.342741     -0.560592
C      -1.088885     -0.807615      0.361015
N      -0.412140      0.413157      0.824353
H      -0.801347      0.963773      1.577739
H       0.746775     -0.363641     -1.765400
H       0.546606      1.401924     -1.752526
H      -1.824937      0.924276     -0.827459
H      -0.441785     -1.671783      0.278559
H      -2.068833     -0.968774      0.793970
