13
Extracted from Q-Chem output
N       2.613166     -1.127955      1.267295
C       1.834951     -0.380889      0.854039
C       0.897283      0.558352      0.366514
C       0.407983      0.581353     -1.086479
C      -0.991641      0.345482     -0.533812
C      -1.149626     -0.892334      0.284644
N      -0.569586      0.308230      0.873603
H      -0.023357      1.161357      1.345293
H       0.777157     -0.198282     -1.755850
H       0.522834      1.548008     -1.575593
H      -1.876600      0.901879     -0.819684
H      -0.466226     -1.725875      0.170088
H      -2.148313     -1.126560      0.631211
