16
smiles: [C:1]([O:2][C:4]([H:11])([H:12])[H:13])([H:7])([H:8])[H:9].[C:3]([C:5]([O:6][H:16])([H:14])[H:15])[H:10]
C        1.78089100       0.40459100      -0.44105400
O        0.51777800       0.01905500       0.02795400
C       -1.27179700       0.19022600      -1.66619300
C        0.52356000      -1.26991900       0.57800300
C       -1.73014400       0.55864400      -0.48193300
O       -1.33535000       1.70690700       0.12896200
H        2.14335200      -0.27561100      -1.22399300
H        1.68670100       1.40589000      -0.85967900
H        2.52250100       0.42571200       0.36928100
H       -0.55546500       0.79538600      -2.20644000
H        1.20374600      -1.33871700       1.43802900
H        0.82607500      -2.02217600      -0.16338600
H       -0.48989800      -1.49111300       0.91074500
H       -1.61750800      -0.73163400      -2.10995000
H       -2.45013100      -0.04369500       0.06611700
H       -1.78090700       1.79591300       0.97123800
