16
Extracted from Q-Chem output
C       1.589735      0.725781     -0.270911
O       0.460531      0.025307      0.226018
C      -0.582832     -0.392351     -0.831890
C       0.518907     -1.708471      0.309565
C      -1.782814      0.459849     -0.631416
O      -1.548331      1.877696     -0.728597
H       2.150955      0.106733     -0.978734
H       1.232237      1.621772     -0.781174
H       2.232264      0.992929      0.568709
H      -0.105741     -0.184430     -1.794720
H       1.430727     -1.664440      0.922304
H       0.676912     -2.304861     -0.579202
H      -0.329576     -2.055828      0.879652
H      -2.499619      0.210561     -1.417716
H      -2.266403      0.248361      0.330073
H      -1.203544      2.170852      0.115738
