10
smiles: [C:1](=[C:2]([H:8])[H:9])([H:6])[H:7].[N:3](=[C:4]=[O:5])[H:10]
C       -1.63800900      -0.13169900       0.40450800
C       -1.19649300       1.10991000       0.29991900
N        1.79845800      -0.68609500       0.18253200
C        2.45680000      -0.89084900      -0.80889300
O        3.18708300      -1.12664700      -1.67853200
H       -1.65722300      -0.65045300       1.35618600
H       -1.99855600      -0.68147700      -0.45743200
H       -1.17729200       1.62863800      -0.65177500
H       -0.83594300       1.65972200       1.16183400
H        0.85688100      -0.34040800       0.19688600
