10
Extracted from Q-Chem output
C      -1.100080     -0.549536      0.101502
C      -0.943385      0.782783      0.266838
N       1.087412      0.845829     -0.043436
C       1.508063     -0.312818     -0.295091
O       1.285901     -1.485833     -0.445093
H      -1.030426     -1.237350      0.933945
H      -1.331436     -0.980630     -0.863623
H      -1.157464      1.467831     -0.542693
H      -0.862854      1.209486      1.257737
H       2.538041      0.255410     -0.369849
