13
Extracted from Q-Chem output
O       2.249282      1.250042     -1.287687
C       1.799618      0.207115     -0.925864
N       0.475698      0.044148     -0.505899
C      -0.520138      0.931346     -0.223819
C      -1.443123     -0.241884     -0.002821
C      -0.149021     -1.034210      0.091106
H       2.360757     -0.740983     -0.893293
H      -0.116500      0.670795      1.550650
H      -0.603083      1.939097     -0.595282
H      -2.155712     -0.242523      0.815881
H      -1.925586     -0.493747     -0.952090
H       0.086642     -2.067279     -0.130419
H       0.032585     -0.148182      1.657682
