15
Extracted from Q-Chem output
C      -2.586181      0.012906     -0.126015
C      -1.206041     -0.575262      0.034994
O      -0.266568      0.387346     -0.453247
C       1.025528      0.078344     -0.283744
O       1.369688     -1.150793     -0.726262
C       1.901446      0.943743      0.219916
O       3.248759      0.607529      0.170698
H      -2.681502      0.937680      0.444022
H      -2.788016      0.231834     -1.175254
H      -3.337044     -0.694727      0.229158
H      -1.104015     -1.506021     -0.527253
H      -0.982936     -0.783764      1.087710
H       1.614812      1.934510      0.543092
H       3.622118      0.678549      1.050828
H       2.323919     -1.228145     -0.606205
