15
Extracted from Q-Chem output
C      -2.633835      0.035839     -0.051703
C      -1.285550     -0.639387     -0.091573
O      -0.285247      0.387751     -0.009267
C       0.979522     -0.019975      0.017208
O       1.317895     -1.198636     -0.062333
C       1.942071      1.032791      0.193362
O       3.338053      0.310547     -0.053649
H      -2.762258      0.592746      0.876960
H      -2.748737      0.726821     -0.887630
H      -3.422756     -0.715104     -0.116649
H      -1.139834     -1.201857     -1.015856
H      -1.150983     -1.330388      0.742721
H       1.901366      1.918100     -0.424219
H       3.050813      0.679640      0.931136
H       2.994169     -0.621169     -0.121103
