14
Extracted from Q-Chem output
C       2.234096      0.705255     -0.358975
O       1.675696     -0.606480     -0.209076
C       0.417230     -0.849952     -0.011003
C      -2.018424     -0.717514      0.340476
C      -0.685536     -0.021321      0.109845
C      -0.515945      1.366593      0.018600
H       1.773369      1.215569     -1.201412
H       3.296467      0.526828     -0.513877
H       2.039943      1.300672      0.529921
H       0.278563     -1.928766      0.063148
H      -2.721407     -0.469893     -0.456812
H      -1.932969     -1.806803      0.379121
H      -2.461095     -0.387248      1.281908
H      -1.510806      1.833934      0.139758
