14
Extracted from Q-Chem output
C       2.045313      0.394853      0.083045
O       1.413390     -0.827054     -0.331817
C       0.170893     -0.755438     -0.745512
C      -1.370812     -0.726238      0.598343
C      -0.684765      0.326227     -0.617747
C      -0.982123      1.561927     -0.910968
H       1.949550      1.153243     -0.689779
H       3.085981      0.135182      0.254548
H       1.584044      0.755269      1.003301
H      -0.159201     -1.703083     -1.160690
H      -2.155238     -1.331789      0.150766
H      -0.742293     -1.344131      1.243440
H      -1.780139      0.081109      1.197847
H      -1.752961      2.015401     -0.281639
