11
Extracted from Q-Chem output
O       2.743462     -0.065330     -0.068900
C       1.582972      0.242115     -0.212440
N       0.615662     -0.672031      0.554546
C      -0.633041     -0.601404      0.058206
C      -1.042957      0.723319     -0.167300
O       0.985681      1.118279     -0.870637
H       1.015795     -1.572874      0.762789
H      -1.107699     -1.417358     -0.483637
H      -1.590100     -0.181034      0.804158
H      -0.695855      1.497003      0.497923
H      -1.836625      0.943473     -0.871532
