19
Extracted from Q-Chem output
C       2.818543      0.083520     -0.428710
O       1.515397     -0.227582     -0.841769
C       0.621008     -0.377003      0.302847
C      -1.143754     -0.089059      0.851413
C      -1.459271      1.376353      0.709189
C      -0.754496     -0.736012     -0.791608
C      -1.996859     -0.943708      0.010028
H       3.245900     -0.704077      0.206864
H       2.853579      1.030382      0.127145
H       3.430148      0.179394     -1.325364
H       0.863925     -1.305429      0.819490
H       0.869770      0.476824      0.932860
H      -0.630909      2.014843      1.024521
H      -2.291705      1.558581      1.395165
H      -1.788699      1.704278     -0.287176
H      -0.257470     -1.641870     -1.112351
H      -0.790034      0.034927     -1.548629
H      -2.175260     -1.963499      0.338703
H      -2.878622     -0.474884     -0.422073
