8
Extracted from Q-Chem output
O       0.596802      1.017298      0.053701
C      -0.815304      0.977366      0.044695
C      -1.305962     -0.284006     -0.019700
N      -0.082984     -0.998783     -0.049961
C       0.969269     -0.218129     -0.006349
H      -1.267232      1.952273      0.090708
H      -0.028451     -2.002420     -0.099817
H       2.013783     -0.484703     -0.014971
