8
Extracted from Q-Chem output
O       0.574216      1.035365      0.068307
C      -0.802407      0.860676      0.070543
C      -1.128715     -0.434359     -0.103199
N       0.189479     -1.070720     -0.194572
C       1.096076     -0.162475     -0.039733
H      -1.369133      1.768218      0.182576
H      -0.707975     -1.737133      0.051339
H       2.168919     -0.271393     -0.035797
