17
Extracted from Q-Chem output
C      -2.317774     -0.163828      0.124143
C      -1.508984      0.717562     -0.783546
C      -0.832966     -0.253984      0.125826
C       0.948431     -0.779148     -0.936632
C       1.400374     -0.532609      0.485513
C       2.128260      0.722523      0.472185
C       0.102964     -0.326298      1.139992
H      -2.858810     -0.982562     -0.334926
H      -2.804545      0.273277      0.988673
H      -1.531852      0.516874     -1.847536
H      -1.410583      1.765431     -0.523849
H       1.255619     -1.688974     -1.455470
H       0.876095      0.090023     -1.576961
H       1.978789     -1.361389      0.898144
H       1.618474      1.596066      0.085717
H       3.092544      0.863116      0.945173
H      -0.115175     -0.453783      2.195106
