13
Extracted from Q-Chem output
N       1.885396      0.643384     -0.086784
C       0.538261      0.335640     -0.045741
C      -0.109252     -0.921521     -0.013565
O       0.597439     -2.088203     -0.124525
C      -1.576968     -0.772743     -0.167179
C      -1.686630      0.611749     -0.161856
N      -0.449440      1.231131     -0.133480
H       2.453728     -0.189100     -0.111473
H       2.208885      1.281358      0.624450
H      -0.026527     -2.747144     -0.444834
H      -0.814236     -0.879806      0.995279
H      -2.572328      1.228342     -0.174758
H      -0.297730      2.227599     -0.137630
