16
Extracted from Q-Chem output
C      -1.612685      0.263481      0.769517
C      -1.784812     -0.083850     -0.687449
C      -0.425335     -0.037223     -0.081967
C       0.577855     -1.227193      0.186825
C       1.648093     -0.129497      0.231305
C       0.790214      0.805408     -0.400597
H      -1.914269     -0.472643      1.504204
H      -1.771325      1.291179      1.069143
H      -2.065181      0.706362     -1.373070
H      -2.199717     -1.055573     -0.926518
H       0.624429     -1.870050     -0.692670
H       0.415390     -1.828323      1.083726
H       2.686225      0.788346     -0.272263
H       2.098029      0.065066      1.194468
H       0.923720      1.140005     -1.419982
H       2.056114      1.682646     -0.169144
