17
smiles: [C-:1]([O+:2]=[C:3]1[C:4]([H:12])([H:13])[O:5][C@:6]1([C:7]([H:15])([H:16])[H:17])[H:14])([H:9])[H:10].[H:8][H:11]
C        1.67529900       1.24001200      -0.77053300
O        1.47661500       0.46085500       0.25569800
C        0.36058700      -0.01062800       0.68150500
C        0.15706700      -1.29722200       1.41669000
O       -1.08209500      -1.46475400       0.69578400
C       -0.87779500      -0.28055200      -0.10770100
C       -2.06610400       0.65091700      -0.08165200
H        1.90023200      -0.35552500      -1.97368600
H        0.82639100       1.66920600      -1.28219800
H        2.69187000       1.56818300      -0.89689800
H        1.59923600      -0.96371500      -1.66724800
H       -0.01505300      -1.25656300       2.49593800
H        0.88486900      -2.08655700       1.19021100
H       -0.61912100      -0.54105900      -1.15361000
H       -1.85668200       1.55136700      -0.66304200
H       -2.93595600       0.15794200      -0.51867600
H       -2.30217500       0.93933600       0.94273100
