17
Extracted from Q-Chem output
C       1.515162      1.406445     -0.642274
O       1.332217      0.505384      0.290474
C       0.522387     -0.498589      0.206268
C       0.156940     -1.404171      1.342238
O      -1.181680     -1.482085      0.817767
C      -0.917476     -0.553761     -0.259285
C      -1.750395      0.706545     -0.146662
H       1.849570     -0.240298     -1.788707
H       0.720021      1.607606     -1.345487
H       2.277735      2.130247     -0.405828
H       1.519192     -0.882727     -1.467529
H       0.190101     -0.953763      2.341280
H       0.639044     -2.385267      1.367472
H      -1.084275     -1.038224     -1.227078
H      -1.595827      1.365380     -1.002771
H      -2.804301      0.425819     -0.124237
H      -1.520719      1.256528      0.767496
