15
smiles: [C-:5]#[O+:6].[C:1]([C:4]([C:2]([C:3]([H:11])([H:12])[H:13])=[O:7])([H:14])[H:15])([H:8])([H:9])[H:10]
C       -1.09363700       1.38029500      -1.12903400
C        0.03055900       0.08145500       0.68975900
C       -0.74786600      -1.16636900       1.02871900
C        0.08907100       0.47719200      -0.77209500
C        2.98298200      -1.40427100       0.46326300
O        3.96345900      -1.03097800       0.86495500
O        0.56556000       0.74832100       1.54023900
H       -1.04463400       1.68091200      -2.17612000
H       -2.04898500       0.87404700      -0.97453500
H       -1.08488200       2.28243900      -0.51593800
H       -0.19034400      -2.03846300       0.67639200
H       -0.89258400      -1.24213800       2.10402500
H       -1.71190500      -1.17574700       0.51563600
H        0.08046500      -0.41627300      -1.40202600
H        1.02735100       1.00882900      -0.93472200
