15
Extracted from Q-Chem output
C      -0.858386      1.279615     -0.414741
C      -0.119666      0.074165      0.118716
C      -1.019600     -0.911408      0.826855
C       0.940932     -0.531767     -0.815372
C       1.921233     -0.011592      0.217479
O       3.095055      0.002685      0.381319
O       0.962514      0.509990      1.024986
H      -0.169779      1.983741     -0.883371
H      -1.597433      0.970568     -1.156574
H      -1.378407      1.794499      0.394507
H      -0.445545     -1.747188      1.228548
H      -1.540696     -0.424419      1.652540
H      -1.765609     -1.303448      0.132698
H       0.934255     -1.616146     -0.911859
H       1.041132     -0.069295     -1.795731
