9
Extracted from Q-Chem output
C      -1.216451      0.152043      0.026031
C       0.048320     -0.242261     -0.620721
C       0.888653     -0.506237     -1.525528
C       1.454035     -0.122801      0.274434
O       1.467991      0.813223      1.008111
H      -1.109778      1.139020      0.474501
H      -1.499239     -0.559498      0.802139
H      -2.001779      0.188093     -0.727298
H       2.164250     -0.953351      0.325411
