17
Extracted from Q-Chem output
C      -1.811181      0.067259     -0.040045
C      -0.988039      0.888574     -0.996758
C      -0.376236     -0.261398     -0.271924
C       0.283056     -1.475683     -0.909923
C       1.596667     -1.120723     -0.243289
C       1.452074      1.088230      1.161615
C       0.828017     -0.200418      0.671527
H      -2.558433     -0.599926     -0.451514
H      -2.083001      0.516918      0.907366
H      -1.178349      0.777630     -2.057154
H      -0.713163      1.891501     -0.693420
H      -0.066304     -2.428507     -0.490769
H       0.318399     -1.593686     -1.995307
H       1.711245      1.734636      0.321840
H       0.770396      1.637910      1.814457
H       2.367095      0.876442      1.716334
H       0.620928     -0.869537      1.526710
