14
smiles: [C:1](=[N:2][H:9])([H:7])[H:8].[C:3]([C@@:4]1([H:11])[C:5]([H:12])([H:13])[N:6]1[H:14])[H:10]
C        2.37806900      -1.06012100       0.72025200
N        1.68294300      -0.74677500       1.72406600
C        0.06630300       0.64917300      -1.46974300
C       -1.04253400       1.08678400      -0.72396800
C       -1.41042500      -0.29824900      -0.11060000
N       -1.02386700       0.81344300       0.71322800
H        3.15724000      -1.81451000       0.83455100
H        2.26072300      -0.62557400      -0.27771900
H        0.99423900      -0.03476700       1.48458100
H       -0.22546800       0.73853600      -2.53294300
H       -1.89941100       1.64401200      -1.10490300
H       -0.71438800      -1.12382200      -0.14337000
H       -2.45795300      -0.54308900      -0.25412700
H       -1.84454400       1.24091100       1.12884100
