13
Extracted from Q-Chem output
C       1.677525      0.935869     -0.656908
O       0.940427      0.420916      0.428018
C       0.269183     -0.765511      0.117449
C      -1.078200     -0.674330     -0.389637
O      -1.320768     -1.753485     -1.043841
N      -1.934061      0.330527     -0.313307
H       1.027110      1.199863     -1.500529
H       2.417718      0.209028     -1.006055
H       2.184911      1.835154     -0.306290
H       0.292503     -1.453758      0.965189
H      -0.109339     -1.846419     -0.902640
H      -2.771054      0.343130     -0.868114
H      -1.702569      1.118034      0.265934
