17
Extracted from Q-Chem output
C      -2.037075     -0.436183      0.045236
C      -1.052530      0.520895     -0.575970
O      -0.385394      1.393348      0.323408
C       0.820450      1.366156     -0.349065
C       1.598521      0.120007     -0.176057
C       1.167711     -0.733761      1.092254
C       0.800298     -1.079193     -0.257522
H      -2.919099      0.111552      0.395254
H      -1.604611     -0.980899      0.881165
H      -2.363860     -1.155139     -0.706625
H      -1.577997      1.149891     -1.303148
H       0.036739      0.630324     -1.332329
H       1.338048      2.326990     -0.338264
H       2.621323      0.165130     -0.532118
H       0.500245     -0.107383      1.681652
H       1.830593     -1.364910      1.680657
H       1.106742     -2.012647     -0.716428
