12
smiles: [C:5](=[N:6][H:12])([H:10])[H:11].[N:1]#[C:2][C:3](=[C:4]([H:8])[H:9])[H:7]
N        2.25695200       0.44647200      -0.99036000
C        1.52044900       0.75132000      -0.16340400
C        0.58751100       1.11689400       0.86042300
C        0.85980700       2.03791600       1.77486300
C       -1.67326500      -2.14952400      -1.31178200
N       -0.87656500      -1.25491900      -0.91939000
H       -0.36060500       0.59275400       0.84424800
H        0.13226700       2.28998700       2.53517100
H        1.80766400       2.56072100       1.78933000
H       -1.46932700      -2.84978700      -2.12820500
H       -2.63917400      -2.24893700      -0.81534600
H       -0.01494900      -1.26809200      -1.46353100
