10
Extracted from Q-Chem output
C      -1.275515      0.038063     -0.071602
C       0.100043      0.044911      0.492313
O       0.927764     -1.325427     -0.347260
C       0.929476      1.150305      0.171298
N       1.646974      2.034164     -0.020900
H      -1.316513      0.246423     -1.144159
H      -1.812851      0.838273      0.448029
H      -1.790897     -0.895772      0.145705
H       0.804568     -1.174783      0.706788
H       1.810888     -1.004777     -0.572616
