10
Extracted from Q-Chem output
O       0.842218      0.172607      1.546100
C       0.813437     -0.504217      0.451599
C       0.320709      0.370805     -0.717134
C      -1.044420     -0.022320     -0.564337
N      -0.738107      1.117926      0.026423
H       1.536201     -1.306431      0.280558
H       0.832128      0.826660     -1.551625
H      -1.924663     -0.536900     -0.918005
H      -0.287686     -1.148571      0.397887
H      -0.283052      0.996409      1.066236
