18
Extracted from Q-Chem output
C      -2.382489      0.116256      0.352960
C      -1.321261      0.001589     -0.689706
C       0.305029      1.241705     -0.084047
C       0.998150     -0.044474     -0.510631
C       2.258713     -0.408903      0.248402
C      -0.206371     -0.973055     -0.350111
H      -2.047019      0.013535      1.396302
H      -3.040513     -0.738995      0.151085
H      -2.994281      1.013025      0.247621
H      -0.702629      1.179118     -0.805752
H       0.080228      1.291543      0.980737
H       0.720660      2.186784     -0.440409
H       1.222608      0.040308     -1.578032
H       2.664251     -1.360977     -0.101107
H       3.031867      0.352129      0.116096
H       2.058295     -0.502099      1.318576
H      -0.203962     -1.849469     -1.002389
H      -0.250366     -1.327730      0.693000
