12
Extracted from Q-Chem output
N       2.178831     -0.818498      1.506524
C       1.483310     -0.499981      0.651027
C       0.586199     -0.044484     -0.435423
C      -0.673981     -0.935515     -0.492277
N      -1.627252     -0.358444      0.455944
C      -1.520271      0.774701      0.802891
N       0.186261      1.326651     -0.324123
H       1.108452     -0.221772     -1.384892
H      -1.136145     -0.879535     -1.478696
H      -0.474178     -1.976772     -0.247880
H      -0.950055      1.729276      0.797979
H       0.920724      1.860323      0.134256
