15
Extracted from Q-Chem output
C      -1.960627      1.146031     -0.521341
C      -0.531767      0.687880     -0.384412
O      -0.209026      0.348107      0.953117
C      -0.206961     -0.695435     -0.699603
O       1.429419     -1.835538      0.349777
C       2.286523     -1.153034      0.945598
O       2.186248      0.060276      1.260986
H      -2.640587      0.410951     -0.089184
H      -2.221400      1.303952     -1.569331
H      -2.083145      2.088012      0.014437
H       0.173836      1.407704     -0.807056
H       0.858736      0.336733      1.105861
H       0.601827     -0.976876     -1.352657
H      -0.921312     -1.460746     -0.432847
H       3.226392     -1.660913      1.224329
