16
Extracted from Q-Chem output
C       1.131600      1.152859      0.856217
C      -0.131547      0.554976      0.361781
C       0.575131     -0.817732     -1.185983
C      -0.904503     -0.555104      1.072714
O      -1.804074     -0.863336      0.012422
C      -1.340165      0.040783     -0.903759
N      -1.000049      1.257439     -0.413842
H       1.688361      1.583961      0.026548
H       1.749132      0.434562      1.394117
H       0.851156      1.970975      1.526423
H       1.420741     -1.049232     -0.537659
H       0.171720     -1.758617     -1.560621
H       0.909501     -0.174454     -2.000128
H      -0.329287     -1.446748      1.316182
H      -1.424084     -0.166118      1.952177
H      -1.648991     -0.117837     -1.931035
