16
Extracted from Q-Chem output
C       2.589002      1.101203     -0.640974
O       1.689101     -0.012779     -0.707841
C      -0.764648     -0.264554      0.223585
C      -1.891862     -0.274535     -0.779416
C      -0.967273     -1.152699      1.426333
C       0.533833      0.215637     -0.129834
N      -0.083261      1.110308      0.485205
H       2.145618      1.972271     -1.125117
H       2.813308      1.339638      0.399593
H       3.489979      0.792000     -1.163145
H      -2.032091     -1.274316     -1.198083
H      -1.695244      0.417372     -1.597989
H      -2.827400      0.020178     -0.297104
H      -1.885984     -0.873596      1.948650
H      -0.135232     -1.065232      2.124517
H      -1.059153     -2.199862      1.127089
