16
Extracted from Q-Chem output
C       2.266442      0.702073     -0.355981
O       0.973990      0.519963     -0.897519
C      -0.778693     -0.131905      0.071279
C      -1.802715     -0.576145     -0.888914
C      -0.463877     -0.941254      1.261747
C      -0.187971      1.167887     -0.078548
N      -0.400665      2.281720      0.295411
H       2.293707      1.608172      0.255104
H       2.561795     -0.161466      0.252522
H       2.982799      0.807072     -1.173284
H      -2.135273     -1.601245     -0.735460
H      -1.423798     -0.434591     -1.903524
H      -2.649277      0.111749     -0.786021
H      -1.322668     -0.854690      1.939480
H       0.419960     -0.581276      1.782422
H      -0.372488     -1.997501      1.002232
