12
Extracted from Q-Chem output
O      -1.538330     -1.478733      1.302085
C      -0.862544     -0.882552      0.519863
C      -0.604925      0.570213      0.349118
C       0.853327      0.933728      0.448986
C       0.243493      0.655658     -0.893874
C       0.536577     -0.726779     -1.381960
N      -0.087297     -1.508801     -0.515224
H      -0.044401     -2.516890     -0.554037
H      -1.368217      1.277104      0.634994
H       1.546350      0.208724      0.859110
H       1.075452      1.964486      0.690896
H       0.164877      1.465564     -1.603745
