11
Extracted from Q-Chem output
C       1.137317     -0.161657     -0.018529
C      -0.322240      1.087133      0.515642
C      -1.018773      0.244236     -0.574222
C      -0.237545     -0.756551      0.259235
O      -0.511459      0.026169      1.456212
H       1.512113     -0.168725     -1.040194
H       1.889489     -0.327902      0.750856
H       0.842421      1.252746      0.332696
H      -2.095630      0.235732     -0.419406
H      -0.747323      0.390937     -1.617783
H      -0.412337     -1.836355      0.351388
