14
Extracted from Q-Chem output
C      -2.105298      0.171478     -0.226191
C      -0.818917     -0.415277      0.356553
C      -0.218206     -1.463305     -0.546862
O       1.045410     -1.129402     -0.681033
C       1.367979      0.062650      0.006605
N       2.695619      0.380534     -0.091638
C       0.301709      0.544397      0.628979
H      -2.552951      0.878900      0.473069
H      -2.825873     -0.619914     -0.432249
H      -1.900469      0.700007     -1.158511
H      -1.086166     -0.990192      1.258173
H       3.138909      0.057189     -0.936065
H       2.930240      1.327357      0.150652
H       0.255526      1.441835      1.223939
