13
Extracted from Q-Chem output
O      -2.448604     -0.206152      0.087350
C      -1.124331     -0.240318      0.564852
C       1.312834     -0.404094     -1.359228
O       0.049129     -0.101592     -1.590031
C      -0.193104      0.565123     -0.302835
C       1.317785      0.413621     -0.061486
O       1.734854     -0.222053      1.108138
H      -2.487090     -0.681039     -0.745740
H      -1.128051      0.204405      1.561783
H      -0.750275     -1.265089      0.662611
H      -0.586682      1.569155     -0.470764
H       1.850230      1.359590     -0.223906
H       2.344116     -0.924577      0.864032
