13
Extracted from Q-Chem output
O      -2.243324     -0.452883      0.072386
C      -0.989934     -0.213185      0.478605
C       0.526537     -0.852728     -0.822021
O      -0.224874      0.163245     -1.560927
C      -0.208562      0.840383     -0.289193
C       1.180688      0.295870     -0.034705
O       1.573391      0.121047      1.292439
H      -2.274118     -0.270378     -0.879700
H      -0.860451     -0.346977      1.547968
H      -0.210321     -1.441311     -0.135517
H      -0.533877      1.892164     -0.305248
H       1.935846      0.790982     -0.650008
H       2.296850     -0.508982      1.312817
