14
Extracted from Q-Chem output
C       0.376766      1.627850      0.324832
C      -0.671160     -0.065572     -0.546520
C      -1.603978     -0.952349      0.218191
O       0.690866     -0.071560      0.279492
C       1.827076     -0.599007     -0.233727
O       1.858990     -1.352092     -1.155090
H       0.380319      2.086517     -0.652280
H      -0.520509      1.833344      0.887877
H       1.282026      1.827622      0.905834
H      -0.386159     -0.509412     -1.502290
H      -1.229795     -1.975814      0.363433
H      -2.533233     -1.019074     -0.354025
H      -1.859300     -0.544485      1.201255
H       2.707483     -0.231295      0.312860
