9
Extracted from Q-Chem output
O       1.907511     -1.137509      0.590158
C       0.878913     -0.545135      0.463023
N       0.566316      0.715601      0.141158
C      -0.821560      0.933513     -0.007276
C      -1.650568     -0.094773      0.224136
O      -0.385485     -1.125341      0.660490
H       1.286636      1.388762     -0.042062
H      -1.171254      1.907309     -0.311851
H      -0.436152     -2.084401      0.594409
