14
Extracted from Q-Chem output
O       1.882779     -0.860089      1.458223
C       0.901438     -0.261185      1.104703
C       0.062750      1.084011     -0.852689
N      -1.315635      0.895933     -0.374865
C      -1.132070     -0.563371     -0.351418
C       0.398103     -0.328395     -0.312208
O       1.199111     -1.145440     -1.086561
H       1.903260     -1.474126     -0.510185
H       0.315330      0.370140      1.796280
H       0.588873      1.943080     -0.429267
H       0.179609      1.079445     -1.941352
H      -2.044971      1.239756     -0.982284
H      -1.384501     -1.076436     -1.285091
H      -1.601739     -1.078250      0.490272
