8
Extracted from Q-Chem output
C      -0.373630     -0.100926     -0.130421
N       0.954073     -0.059032      0.429699
N       1.762988     -0.811371     -0.107181
N       2.574475     -1.467984     -0.511816
N      -0.814989      1.074211     -0.960470
C      -1.284083      0.953148      0.191521
H      -0.713223     -1.084225     -0.445878
H      -1.942679      1.474579      0.871955
