8
Extracted from Q-Chem output
C      -0.546115     -0.574384      0.245069
N       0.580421     -1.246960      0.380938
N       1.616036     -0.472939      0.164473
N       2.089012      0.243971     -0.564070
N      -0.141011      0.930708     -1.253051
C      -0.738183      0.829735     -0.168767
H      -1.413864     -1.226684      0.268966
H      -1.438938      1.524008      0.310624
