14
Extracted from Q-Chem output
C      -1.732113     -0.509389      0.247515
C      -0.506348     -0.162638     -0.532273
C       1.424101     -0.590849     -0.015154
O       2.508806     -0.138116      0.690781
C      -0.278284      1.248998     -0.790218
O       0.409856      0.860345      0.390678
H      -1.561252     -1.364492      0.906641
H      -2.504002     -0.809749     -0.467726
H      -2.121031      0.321289      0.851168
H       1.694711     -0.627473     -1.059827
H       1.023390     -1.509273      0.400145
H       2.320416     -0.162334      1.632388
H      -1.070808      1.953717     -0.541280
H       0.363613      1.578892     -1.606701
