12
Extracted from Q-Chem output
O      -2.406388      0.841502     -0.216696
C      -1.605050     -0.249759     -0.365296
C      -0.306233     -0.275847     -0.121273
C       0.657523      0.779236      0.362666
N       1.941083      0.074720      0.415322
C       1.702419     -1.102922      0.038412
O       0.436676     -1.443162     -0.302873
H      -2.142686     -1.121005     -0.712358
H      -1.895899      1.591718      0.095822
H       0.731776      1.635253     -0.315620
H       0.405047      1.165834      1.355321
H       2.425157     -1.904052     -0.047313
