12
Extracted from Q-Chem output
O      -2.362280      0.766480     -0.189682
C      -1.641011     -0.273333     -0.066053
C      -0.323864      0.051386     -0.474489
C       0.598847      0.806326      0.510782
N       1.713784     -0.124005      0.705604
C       1.563604     -1.039800     -0.143136
O       0.476391     -1.019316     -0.953849
H      -2.074828     -1.214216      0.274600
H      -1.322966      1.122729     -0.803098
H       0.999362      1.732917      0.095606
H       0.105530      1.045606      1.453656
H       2.240337     -1.868960     -0.308397
