19
Extracted from Q-Chem output
C       1.830291     -1.033384     -0.658120
C       1.096005      0.225600     -0.538969
O      -0.276731      2.580407     -0.264992
C      -0.569721      1.576382      0.663804
C      -0.219227      0.169227      0.129972
C      -0.442995     -0.873985      1.225153
C      -1.119978     -0.139588     -1.101859
H       2.530972     -1.048167     -1.492667
H       2.460075     -0.961042      0.249057
H       1.276295     -1.976725     -0.586599
H       0.554968      2.293538     -0.678286
H      -1.638457      1.631449      0.893552
H      -0.022502      1.732576      1.605773
H       0.270317     -0.744031      2.042298
H      -0.352736     -1.895259      0.853885
H      -1.446621     -0.766566      1.643946
H      -0.929759     -1.136715     -1.501401
H      -0.991251      0.595931     -1.894571
H      -2.156699     -0.094250     -0.763133
