19
Extracted from Q-Chem output
C       1.763646     -0.504575     -1.122135
C       1.154570      0.183120      0.029147
O       0.591185      2.024000     -0.353180
C      -0.568337      1.547662      0.352659
C      -0.338151      0.030382      0.301613
C      -0.580256     -0.708247      1.616188
C      -1.166123     -0.594814     -0.820795
H       2.753620     -0.120925     -1.365122
H       1.901044     -1.535005     -0.760006
H       1.147598     -0.563208     -2.024126
H       1.368278      1.508742      0.256966
H      -1.465059      1.878616     -0.172464
H      -0.589623      1.943278      1.373927
H      -0.010633     -0.256782      2.429138
H      -0.283527     -1.757308      1.535074
H      -1.640678     -0.687622      1.879857
H      -0.900195     -1.640993     -0.992190
H      -1.041178     -0.052331     -1.760005
H      -2.227294     -0.563602     -0.560442
