13
Extracted from Q-Chem output
N       4.016878      0.773507      0.937976
C       3.017184      0.544798      0.422782
C       1.794929      0.255267     -0.287097
C      -0.466829     -0.134748     -0.394057
C      -1.499611     -0.979178      0.303951
C      -1.739502      0.479005      0.126288
N       0.705737      0.148783      0.340931
H       1.892768      0.141040     -1.370512
H      -0.363208     -0.248941     -1.471758
H      -2.054953     -1.676916     -0.307805
H      -1.237628     -1.332211      1.291494
H      -2.462362      0.802424     -0.610177
H      -1.641577      1.116972      0.993393
