13
Extracted from Q-Chem output
N       2.603939     -0.215380      1.537195
C       2.013332      0.064345      0.593421
C       1.215877      0.424315     -0.591550
C      -0.180624     -0.118934     -0.716922
C      -0.826754     -0.905898      0.422968
C      -1.355513      0.442574      0.341113
N       0.293559      1.450386     -0.548824
H       1.764112      0.237029     -1.521408
H      -0.523473     -0.351717     -1.715190
H      -1.432419     -1.721511      0.050002
H      -0.191041     -1.150659      1.264869
H      -2.245024      0.629757     -0.244574
H      -1.147242      1.156787      1.115869
