16
Extracted from Q-Chem output
C       0.270216     -0.117398     -1.758260
N       1.082929     -0.194638      0.531893
C       1.748827     -1.133777      1.037719
C      -0.034886     -0.542076     -0.320783
C      -1.317776      0.163758      0.124042
O      -2.383130     -0.328476     -0.149932
C      -1.192790      1.472966      0.852072
H       0.474021      0.953609     -1.809960
H      -0.576057     -0.351304     -2.404253
H       1.150845     -0.646788     -2.123740
H       2.600834     -0.901568      1.673733
H       1.515066     -2.192876      0.870348
H      -0.252485     -1.618773     -0.301874
H      -2.172950      1.936670      0.937035
H      -0.773351      1.297081      1.844626
H      -0.492814      2.133918      0.338596
