15
Extracted from Q-Chem output
C      -2.183791     -0.174116     -0.411261
N      -1.364469     -0.269974      0.678485
C      -0.165913     -1.006563      0.433734
C       0.775924     -0.096451      0.213057
C       2.183545     -0.238250     -0.239398
C       0.047430      1.188215      0.396783
N      -1.086726      0.988739      1.104727
H      -0.723868      0.961058     -0.836534
H      -2.903972      0.632664     -0.381459
H      -2.461093     -1.099952     -0.908330
H      -0.207076     -2.073550      0.282426
H       2.318492      0.263487     -1.200623
H       2.456218     -1.285985     -0.363129
H       2.875882      0.218444      0.470648
H       0.560545      2.140983      0.469527
