15
Extracted from Q-Chem output
C       1.390547      0.492016     -0.353707
C       0.156157     -0.083028      0.323847
O       0.452614     -0.505440      1.644541
C      -0.995903      0.926509      0.370036
C      -1.933297      0.612077     -0.759818
O      -1.599519     -0.563435     -1.203090
C      -0.486702     -1.198609     -0.505737
H       1.152027      0.833985     -1.363134
H       1.774232      1.338896      0.216545
H       2.180157     -0.260919     -0.436055
H       1.271825     -1.005052      1.637572
H      -1.581279      0.789881      1.287727
H      -0.685166      1.971757      0.352442
H      -0.896558     -1.980507      0.134286
H       0.157565     -1.637860     -1.267015
