15
Extracted from Q-Chem output
C       1.493849      0.687835     -0.326480
C       0.335464     -0.035649      0.319059
O       0.666673     -0.546707      1.594412
C      -1.023653      0.713857      0.445692
C      -1.663352     -0.386170     -0.391661
O      -0.974513     -0.413865     -1.638086
C      -0.394525     -1.092815     -0.537247
H       1.213152      1.045021     -1.317082
H       1.793768      1.539910      0.286235
H       2.355041      0.021498     -0.435427
H       1.476620     -1.056543      1.517598
H      -1.349752      0.716875      1.484596
H      -1.080846      1.716003      0.020591
H      -2.677517     -0.761702     -0.378468
H      -0.170407     -2.147549     -0.643732
