16
Extracted from Q-Chem output
C       1.868185      0.448939      0.115718
N       0.939611     -0.544578     -0.380305
C      -0.009672     -1.176146      0.511054
C      -1.200222     -0.196833      0.776638
C      -1.022584      0.854915     -0.309284
C      -0.251943     -0.160260     -1.165048
C      -0.955438     -1.471206     -0.608573
H       1.420278      1.213659      0.765213
H       2.341041      0.949133     -0.731673
H       2.652548     -0.056155      0.681960
H       0.296788     -1.853493      1.302669
H      -1.533577     -0.041451      1.798066
H      -0.475271      1.760682     -0.044137
H      -1.971673      1.134383     -0.766040
H      -0.119995      0.019608     -2.229910
H      -2.062240     -0.829167      0.286530
