11
Extracted from Q-Chem output
N      -2.094640     -0.237571      0.089134
C      -0.754922     -0.095719      0.049437
O       0.001761     -1.036459     -0.394416
N      -0.004252      0.910915      0.363872
C       1.363637     -0.077300     -0.213407
N       2.212369     -0.475193      0.614931
H      -2.460514     -1.164345     -0.033518
H      -2.642035      0.408288      0.625551
H      -0.297085      1.804567      0.722392
H       1.506645      0.311153     -1.219082
H       3.156891     -0.362303      0.271153
