16
Extracted from Q-Chem output
C       2.212121      0.106965      0.079647
C       0.722296      0.135126      0.005352
C      -0.059483      1.199646     -0.135844
C      -1.517322      0.839035     -0.233141
C      -1.537233     -0.636106      0.212173
C      -0.093931     -1.135158      0.027655
H       2.630417     -0.488790     -0.737039
H       2.636705      1.109596      0.021962
H       2.549020     -0.354676      1.012138
H       0.303299      2.218290     -0.217736
H      -2.155953      1.469665      0.389957
H      -1.873689      0.957425     -1.263064
H      -1.804732     -0.689752      1.269724
H      -2.266002     -1.234570     -0.335537
H       0.035658     -1.676852     -0.917239
H       0.218830     -1.819844      0.820991
