12
Extracted from Q-Chem output
N       2.125620     -0.049700     -0.085681
C       0.737125     -0.038672     -0.144584
C      -0.097357      1.054718      0.086014
N      -1.335561      0.588929      0.196633
C      -1.366804     -0.839938     -0.033359
O      -2.366113     -1.441381     -0.418591
N       0.034119     -1.163482     -0.236145
H       2.516421     -0.872372     -0.517692
H       2.563727      0.791007     -0.425218
H       0.166443      2.077619      0.310803
H      -2.180860      1.124673      0.301881
H      -0.843904     -1.182711      1.050570
