18
smiles: [C:1](=[C:2]([H:10])[H:11])([H:8])[H:9].[C:3](=[C:4]([C:5]([C:6]([H:7])([H:17])[H:18])([H:15])[H:16])[H:14])([H:12])[H:13]
C       -2.13675300       0.58488800       1.67454900
C       -2.19262300      -0.55233900       1.00309500
C        1.13286400      -1.97953400      -0.32930000
C        1.53259600      -0.82957600      -0.84963800
C        1.44273000       0.50326800      -0.17174600
C        0.56409500       1.48947900      -0.94001600
H       -0.45993200       1.11886000      -1.01641700
H       -2.83745200       0.81052700       2.47029700
H       -1.38843400       1.33826000       1.45630900
H       -2.94104200      -1.30560600       1.22144000
H       -1.49209900      -0.77809300       0.20725600
H        1.21469700      -2.91089300      -0.87639800
H        0.70606800      -2.03076000       0.66744700
H        1.95067500      -0.82372100      -1.85506600
H        1.05874800       0.37063500       0.84327100
H        2.44985800       0.92285400      -0.07473100
H        0.93827000       1.64243000      -1.95502400
H        0.53819900       2.46129700      -0.44404800
