18
Extracted from Q-Chem output
C      -1.665111      0.497394      0.649026
C      -1.431092     -0.888681      0.788422
C       0.344860     -1.387427      0.425098
C       0.942702     -0.679559     -0.616793
C       1.801645      0.525340     -0.469963
C       0.593221      1.396617     -0.606996
H      -0.517947      0.911028     -0.064453
H      -1.628041      1.122458      1.536079
H      -2.375933      0.828945     -0.101380
H      -1.437877     -1.298126      1.793026
H      -1.958423     -1.531087      0.090095
H       0.111149     -2.421437      0.196074
H       0.811857     -1.268078      1.400106
H       0.678844     -0.949092     -1.636278
H       2.260828      0.585110      0.517064
H       2.572539      0.639690     -1.231578
H       0.350841      1.643034     -1.636735
H       0.559326      2.279417      0.029358
