15
Extracted from Q-Chem output
O      -0.453595      1.148091     -0.383966
C      -1.677436      0.377450     -0.239257
C      -1.007358     -0.846192      0.376180
C       0.371839     -0.203138      0.165228
O       0.978858     -0.386341     -0.988897
C       1.261860      0.044305      1.354642
O       2.458752      0.652555      0.985472
H       0.215612      0.613738     -1.224888
H      -2.162178      0.229679     -1.204258
H      -2.352278      0.908371      0.429208
H      -1.103190     -1.777995     -0.176497
H      -1.256120     -1.006641      1.425228
H       0.747399      0.663998      2.092095
H       1.424182     -0.948318      1.808263
H       2.610627      0.390053      0.066811
