15
Extracted from Q-Chem output
C       0.928772      0.708936      0.134197
C       1.558714     -0.014014     -1.035539
C       1.237283     -0.781370      0.138185
O      -1.432714     -0.649684      1.564455
C      -1.645977      0.327380      0.567848
C      -0.498688      0.508470     -0.406691
C       0.221539     -0.721225     -0.983662
H      -0.548912     -0.530149      1.918049
H       1.382754      1.479713      0.743913
H       2.394537      0.102994     -1.699143
H       1.728728     -1.513668      0.751830
H      -1.876461      1.301528      1.024032
H      -2.539005      0.010471      0.022875
H      -0.785482      1.248258     -1.162230
H      -0.114069     -1.541807     -1.602980
