14
Extracted from Q-Chem output
C      -1.784392      0.829561     -0.450277
C      -0.723590     -0.204623     -0.230550
N       0.413864     -0.122336     -0.976177
C       1.648222     -0.527181     -0.427092
N       2.627411     -0.871714     -1.132885
C       1.614690     -0.462202      1.115667
N       0.517456     -0.242690      1.612829
H      -2.275590      0.709121     -1.422716
H      -1.368782      1.839718     -0.409028
H      -2.564423      0.750858      0.308217
H      -1.062819     -1.214493     -0.015471
H      -0.397846      0.140831      1.761921
H       0.512037      0.700611     -1.553176
H       3.427256     -1.016688     -0.520214
