14
Extracted from Q-Chem output
C      -0.787287     -1.236465      0.632009
C      -0.406270      0.123733      0.120348
C      -1.388851      1.170879      0.129736
O      -2.535130      1.070777      0.515259
C       0.859410      0.355084     -0.343669
O       1.327806      1.516997     -0.825649
N       1.829609     -0.584191     -0.354112
H      -0.189138     -1.538257      1.497546
H      -1.830145     -1.211193      0.944207
H      -0.693005     -2.013423     -0.134284
H       0.638487      2.185965     -0.790233
H      -1.060934      2.167613     -0.255467
H       1.592229     -1.539613     -0.168902
H       2.680774     -0.386314     -0.846646
