14
Extracted from Q-Chem output
C      -0.991573     -1.240770      0.165187
C      -0.454032      0.134570     -0.125901
C      -1.046028      1.253684      0.601122
O      -2.083992      1.191452      1.223258
C       0.929756      0.342554     -0.508336
O       0.988044      1.218949     -1.435444
N       2.009191     -0.276383     -0.057483
H      -0.637957     -1.632427      1.126267
H      -2.076786     -1.184447      0.237056
H      -0.730809     -1.956993     -0.615505
H      -0.243507      0.995454     -1.346939
H      -0.495672      2.215043      0.524557
H       1.947290     -0.893873      0.730765
H       2.898711     -0.128610     -0.501365
