14
Extracted from Q-Chem output
C       1.589089      0.646522      0.097045
C       0.726920     -0.480472     -0.275569
O      -0.272187     -1.367767      1.483169
C      -1.089203     -0.540644      0.897375
C      -0.576419     -0.298776     -0.778454
O      -0.892569      0.974112     -1.237810
H       0.997047      1.444899      0.547398
H       2.398489      0.340827      0.754010
H       2.002713      1.066651     -0.828055
H       1.128122     -1.481187     -0.248662
H      -1.020616      0.542205      1.143127
H      -2.167424     -0.819599      0.861968
H      -0.991100     -1.116116     -1.368100
H      -1.808042      1.166352     -1.018518
