12
Extracted from Q-Chem output
C       1.856936     -0.167617      0.468560
C       0.538648     -0.171463      0.299986
N      -0.130739     -1.371339      0.697003
N      -1.356900     -1.349107      0.577348
C      -1.130972      0.950950     -1.142288
O      -1.698952      1.953081     -1.491732
N      -0.188215      0.939681     -0.147963
H      -1.301229     -0.032777     -1.601239
H       2.331475     -1.029481      0.915089
H       2.462865      0.682876      0.186991
H      -1.701756     -2.258233      0.904356
H       0.045624      1.844466      0.229423
