17
Extracted from Q-Chem output
C       2.241975     -0.101673      0.051272
C       1.058560      0.783606      0.420146
C      -0.125874     -0.030815      0.874761
O      -1.280669      0.770589      1.195894
C      -2.157220     -0.022336      0.420631
C      -1.398452     -0.343312     -1.398599
C      -0.919288     -0.860696     -0.162902
H       1.987931     -0.780242     -0.766725
H       2.564644     -0.709446      0.899920
H       3.094084      0.497607     -0.270183
H       0.762425      1.402312     -0.430595
H       1.327332      1.472131      1.225945
H       0.142806     -0.646323      1.741689
H      -2.809508     -0.685318      0.990661
H      -2.779247      0.559997     -0.273540
H      -1.052086      0.699171     -1.510284
H      -0.982419     -1.934108     -0.003944
