17
Extracted from Q-Chem output
C       2.262218     -0.163732     -0.031643
C       1.123478      0.766810      0.365310
C      -0.051334     -0.002495      0.919336
O      -1.180256      0.825905      1.298468
C      -2.054294     -0.007000      0.549067
C      -1.736201      0.060917     -0.900618
C      -0.934431     -0.841383      0.003249
H       1.942204     -0.868874     -0.802575
H       2.617772     -0.744128      0.823320
H       3.110656      0.395683     -0.427254
H       0.797660      1.357976     -0.493894
H       1.456441      1.478972      1.125734
H       0.257849     -0.590172      1.791548
H      -3.013333     -0.265865      0.977364
H      -2.422043     -0.463792     -1.554350
H      -1.311400      0.970451     -1.309027
H      -0.864988     -1.909272     -0.139875
