10
Extracted from Q-Chem output
N       2.031361     -0.126361      0.233499
C       0.794892     -0.019842      0.065237
O       0.212847      0.924398     -0.668670
C      -1.214100      0.721771     -0.618010
C      -1.488835     -0.471103      0.233403
N      -0.276516     -0.826088      0.579350
H       2.268146     -0.911842      0.827684
H      -0.076966     -1.616794      1.173244
H      -1.591582      0.570487     -1.632008
H      -1.687521      1.612984     -0.199337
