10
Extracted from Q-Chem output
N       2.151991     -0.069782      0.192780
C       0.908961     -0.057652      0.101251
O       0.209349      0.814157     -0.582125
C      -1.209925      0.725715     -0.617324
C      -1.685586     -0.440699      0.202370
N      -0.842772     -1.115507      0.754298
H       2.513910     -0.821318      0.765319
H       0.076616     -1.426840      1.047905
H      -1.524870      0.599305     -1.653372
H      -1.625950      1.650233     -0.216709
