14
Extracted from Q-Chem output
C      -1.527510     -0.321360      0.010619
C      -0.082954      0.083977     -0.105571
C       0.813440      0.063215      1.113208
C       1.010790     -0.950597      0.046004
C       0.217230      1.161796     -1.074591
O      -0.600382      1.719934     -1.755217
H      -2.145176      0.528797      0.303317
H      -1.650131     -1.109597      0.755144
H      -1.904190     -0.688350     -0.945153
H       1.552135      0.848109      1.219337
H       0.348165     -0.244086      2.040335
H       1.885892     -0.865704     -0.586356
H       0.683680     -1.965864      0.226957
H       1.293520      1.438674     -1.140809
