14
Extracted from Q-Chem output
C      -1.803564      0.116095      0.255423
C      -0.360966      0.366298      0.165738
C       0.692850     -0.167200      1.049261
C       1.454169     -0.427125     -0.264326
C       0.437355      0.491128     -1.125681
O      -0.309047     -0.143567     -1.971961
H      -2.145244      0.533454      1.210123
H      -2.029172     -0.953976      0.287947
H      -2.326539      0.549474     -0.594548
H       1.161235      0.630858      1.630019
H       0.447328     -1.002966      1.704563
H       2.476697     -0.058291     -0.286498
H       1.372926     -1.446559     -0.625903
H       0.887605      1.466987     -1.383140
