7
Extracted from Q-Chem output
O       0.696863      1.244778     -0.217884
C       1.216300      0.029359     -0.361529
N       0.228656     -0.879291     -0.191214
C      -0.905492     -0.108603      0.074073
N      -0.680668      1.146332     -0.006128
H       1.299377     -0.936534      0.481120
H      -1.884669     -0.520350      0.258150
