14
Extracted from Q-Chem output
C      -1.989180      1.161886     -0.458669
C      -1.427521     -0.199325     -0.717249
C      -0.081480     -0.469951     -0.801234
C       1.181815     -0.290989     -1.005919
C       2.260364     -0.549911     -0.040706
O       1.886093     -0.861240      1.302586
H      -2.949698      1.271043     -0.966749
H      -2.170243      1.332519      0.605915
H      -1.295757      1.927450     -0.809727
H      -0.449882     -1.150110      0.095254
H      -2.121692     -1.030120     -0.799833
H       2.945214      0.307521     -0.056417
H       2.842706     -1.404846     -0.392494
H       1.490662     -0.077543      1.688878
