12
Extracted from Q-Chem output
O      -1.812405     -1.403341     -0.276206
C      -1.656420     -0.530347      0.535893
C      -0.488716      0.388859      0.551838
C       0.169709      0.710430     -0.717208
C       0.867650     -0.292047      0.245063
C       2.033266      0.342691      0.733294
H      -2.396140     -0.368585      1.342803
H       0.772643     -1.327346     -0.074578
H      -0.451759      1.127111      1.341027
H      -0.203250      0.236425     -1.615126
H       0.625368      1.683415     -0.819817
H       2.885522     -0.342853      0.572641
