12
Extracted from Q-Chem output
C      -1.692849     -0.210402      0.540048
C      -0.645560      0.266972     -0.381896
C      -0.154488      0.574086     -1.566423
C       0.697936      0.748602     -0.336561
C       1.520583     -0.460548      0.721844
O       2.190194     -0.446125     -0.347637
H      -2.650820     -0.213534      0.020907
H      -1.484220     -1.232684      0.863729
H      -1.766133      0.423004      1.424180
H       1.305104      1.610251     -0.114219
H       0.844306     -1.295243      0.945113
H       1.846180      0.110503      1.603124
