13
Extracted from Q-Chem output
C      -1.539205      0.257907     -1.102352
O      -0.493965     -0.422300     -1.781896
C      -0.258551      0.026203     -0.450964
C       0.835780      1.026559     -0.275450
N       1.644106      0.740543      0.651104
C       1.200400     -0.506365      1.260583
N      -0.034482     -0.912072      0.588663
H      -1.796304      1.242327     -1.486227
H       1.047843     -0.359475      2.332302
H      -2.385664     -0.363892     -0.819205
H       0.956009      1.896972     -0.912808
H       1.996746     -1.244587      1.130575
H      -0.819167     -1.009690      1.211290
