16
Extracted from Q-Chem output
C       1.518840      0.102918      1.332505
C       1.041035      0.731806      0.099718
C       0.055389     -1.019915     -1.045484
C      -0.293767      0.332598     -0.355936
C      -1.402361      0.156019      0.677599
O      -0.787336      1.235362     -1.335693
H       2.604558      0.015972      1.376463
H       1.268060      0.903693      2.052909
H       1.032076     -0.814597      1.684277
H       0.964541     -0.943387     -1.646674
H      -0.771883     -1.237637     -1.720209
H       0.170323     -1.828869     -0.324414
H      -2.316301     -0.155613      0.170926
H      -1.602257      1.106473      1.173651
H      -1.151009     -0.593719      1.427823
H      -0.029395      1.768984     -1.595942
