16
Extracted from Q-Chem output
C       1.502720      0.010362      1.198009
C       0.970226      0.474761     -0.130053
C       0.111980     -0.953139     -0.927657
C      -0.471061      0.340077     -0.355144
C      -1.484857      0.203177      0.756057
O      -0.993551      1.203709     -1.339502
H       2.552662     -0.276668      1.134219
H       1.461240      0.898149      1.837215
H       0.947617     -0.784532      1.710947
H       1.264430     -0.640963     -0.993478
H      -0.080158     -1.053449     -1.991022
H      -0.015317     -1.847438     -0.326599
H      -2.453630     -0.072276      0.338305
H      -1.599478      1.161038      1.265101
H      -1.198481     -0.552070      1.487055
H      -0.240964      1.713287     -1.656028
