14
Extracted from Q-Chem output
C      -2.028830     -0.094322     -0.321223
C      -0.736023     -0.546404      0.333777
O      -0.171799     -1.540175     -0.490546
C       0.199368      0.618352      0.572066
C       1.415455      0.680738      0.117169
C       2.630732      0.713533     -0.346162
H      -1.817266      0.351243     -1.294294
H      -2.689254     -0.949839     -0.465141
H      -2.542745      0.640988      0.300246
H      -0.975302     -0.974109      1.319937
H       0.749895     -1.660351     -0.248093
H       2.846418      1.139008     -1.319578
H      -0.184810      1.438700      1.172138
H       3.462680      0.326973      0.231686
