16
Extracted from Q-Chem output
C       1.790515     -0.218110     -0.653761
C       0.902069      0.643125      0.174469
N       1.088876      1.801923      0.545713
O       0.446383     -0.685578      1.436901
C      -0.723423     -0.271379      1.057297
C      -1.662235     -0.969131      0.182912
C      -0.962023      0.139708     -0.618094
H       2.759708     -0.256381     -0.158479
H       1.408060     -1.227477     -0.750779
H       1.903972      0.247200     -1.634643
H       0.416860      2.313081      1.091872
H      -1.162660      0.598352      1.566156
H      -1.375118     -1.974801     -0.102938
H      -2.724353     -0.836952      0.358216
H      -0.483911     -0.215627     -1.519204
H      -1.515665      1.061209     -0.745958
