15
Extracted from Q-Chem output
C      -1.520280      0.837508     -0.271253
C      -1.658756     -0.586834      0.178462
C      -0.511253      0.233254      0.665170
N       0.801521     -0.064401      0.187113
C       1.282027     -1.080005     -0.573143
C       1.926222      0.680190      0.198566
H      -1.198877      1.000085     -1.291954
H      -2.200033      1.580636      0.123260
H      -2.430835     -0.839219      0.891936
H      -1.441755     -1.357128     -0.549690
H      -0.526380      0.562082      1.696838
H       1.216937     -2.112867     -0.231665
H       1.589725     -0.881198     -1.588981
H       1.914295      1.719539     -0.132725
H       2.802204      0.296171      0.698235
