12
Extracted from Q-Chem output
O       1.313667      1.315631      0.754780
C       1.532968      0.120858      0.041342
C       0.326311     -0.360266     -0.706773
C      -0.362119     -0.293202     -1.819726
C      -1.339281     -0.613883     -0.724781
O      -2.237369      0.334580     -0.355360
H       0.809786      1.124502      1.548048
H       1.935873     -0.662224      0.691343
H       2.273105      0.339439     -0.730067
H      -1.728543     -1.622965     -0.622287
H      -0.461182     -0.811475      0.262956
H      -2.047726      1.126316     -0.873807
