14
Extracted from Q-Chem output
O       0.159815      1.471556     -0.358233
C       0.714965      0.321402     -0.853224
C       1.596913     -0.401431      0.078838
N       0.195226     -0.883698     -0.042459
C      -0.825052     -0.273283      0.822636
C      -1.103298      1.103972      0.197139
C      -0.034614     -0.662255     -1.617672
H       2.313808     -1.116956     -0.307092
H       1.860012      0.082233      1.015966
H      -0.434069     -0.193461      1.837380
H      -1.703045     -0.915395      0.821426
H      -1.388744      1.866353      0.920480
H      -1.852487      1.020228     -0.589938
H       0.652970     -1.393288     -2.052502
