14
Extracted from Q-Chem output
O       0.511076      1.600907     -0.284156
C       0.918803      0.511405     -0.747308
C       1.607729     -0.487455      0.144232
N       0.206343     -0.974169      0.023878
C      -0.795203     -0.288208      0.825880
C      -1.332334      0.898830      0.036580
C      -0.017535     -0.398305     -1.402478
H       2.289980     -1.208382     -0.294655
H       1.929351     -0.115666      1.116386
H      -0.393489      0.014178      1.793845
H      -1.626953     -0.980988      0.997357
H      -1.455489      1.839327      0.562888
H      -2.104699      0.699964     -0.687921
H       0.353115     -1.099212     -2.150265
