14
smiles: [O:1](/[C:2](=[C:3](\[C:4]([H:9])([H:11])[H:12])[H:10])[H:8])[H:7].[O:5]=[C:6]([H:13])[H:14]
O        1.00974400      -0.46496000      -0.99715100
C       -0.03466800       0.04922200      -1.69503200
C       -1.27952600       0.22798700      -1.26966300
C       -1.81002800      -0.10480100       0.09138500
O        1.28039500      -0.56277400       1.80870400
C        2.24609700       0.14234100       1.81547000
H        0.72582800      -0.68118500      -0.10537700
H        0.26820400       0.31525500      -2.70011200
H       -2.72922600      -0.68992400       0.01961300
H       -1.97116500       0.66268600      -1.98101700
H       -1.11302500      -0.69283300       0.69434000
H       -2.04616900       0.79782400       0.66118200
H        2.78207100       0.39305100       2.75113400
H        2.65618900       0.58258300       0.88631400
