17
Extracted from Q-Chem output
C       2.097385      0.106775     -0.240524
C       0.974836     -0.909063      0.006072
C      -0.154810     -0.263786      0.736128
C      -1.368862      0.271723     -1.384060
O       0.034183     -0.263775      2.032099
C      -1.273830      0.320111      0.128731
C      -2.295242      0.932048      0.852125
H       2.924161     -0.371404     -0.765319
H       2.474731      0.503289      0.702399
H       1.746602      0.942635     -0.847155
H       1.348990     -1.734989      0.613016
H       0.616153     -1.310397     -0.940105
H      -2.242864      0.846731     -1.681618
H      -0.494621      0.704098     -1.878155
H      -1.493107     -0.747190     -1.761851
H      -0.725332      0.203450      2.431166
H      -2.113819      0.898843      1.952810
