17
Extracted from Q-Chem output
C       2.071330      0.149944      0.273006
C       0.927076     -0.445450     -0.532008
C      -0.454358     -0.263431      0.106286
C      -1.539395     -0.893110     -0.768598
O      -0.399946     -0.922998      1.367345
C      -0.756671      1.168978      0.302832
C      -1.034152      2.322623      0.466790
H       3.024367     -0.031717     -0.226253
H       2.115375     -0.294180      1.267235
H       1.951892      1.228854      0.388629
H       1.073380     -1.522250     -0.655259
H       0.895764     -0.006936     -1.532633
H      -2.518195     -0.790621     -0.296633
H      -1.580979     -0.410320     -1.745836
H      -1.323059     -1.954055     -0.900576
H      -1.181299     -0.685172      1.871162
H      -1.271131      3.349844      0.614513
