17
Extracted from Q-Chem output
C       2.270859      0.046042      0.298040
C       1.029512     -0.444469     -0.450637
C      -0.187742     -0.175839      0.376261
C      -1.695103     -0.368853     -0.999440
O      -0.282874     -0.986770      1.425658
C      -1.131125      0.811144      0.148121
C      -1.848583      1.877946      0.395860
H       3.159004     -0.122007     -0.310695
H       2.395694     -0.484569      1.241646
H       2.200001      1.114515      0.507376
H       1.108205     -1.517146     -0.647636
H       0.933598      0.077429     -1.400354
H      -2.738794     -0.108437     -0.853230
H      -1.334262     -0.081440     -1.982725
H      -1.566116     -1.441707     -0.843681
H      -0.988015     -0.657489      1.998326
H      -1.317907      2.535557      1.097962
