11
Extracted from Q-Chem output
O      -2.294042      0.090228      0.293217
C      -1.083240     -0.167081      0.056576
C       0.018041      0.768578     -0.256919
C       1.397434      0.135347     -0.143186
C      -1.393352     -1.492316      0.091413
H      -0.169440      1.131890     -1.272412
H      -0.100610      1.633042      0.400866
H       1.599636     -0.187482      0.879124
H       2.170308      0.848506     -0.428579
H      -1.387401     -1.993012      1.058208
H       1.483049     -0.734687     -0.795917
