11
Extracted from Q-Chem output
N       1.398820      0.570375      0.795369
C       0.901663      0.076278     -0.327869
C       0.435110     -1.359365     -0.260586
N      -0.794466     -1.533095      0.030491
C      -1.403951     -0.287682      0.250764
C      -0.674788      0.805073      0.123364
O       0.635772      0.745169     -1.400718
H       1.630187      1.553849      0.642461
H       1.095787     -2.198355     -0.449529
H      -2.448128     -0.225128      0.526961
H      -0.758943      1.873449      0.157121
