13
Extracted from Q-Chem output
N      -1.376159     -0.847878     -0.777777
C      -0.763458      0.327997     -1.120192
O      -0.691032      0.707952     -2.271696
C      -0.215860      1.121285      0.017770
C       1.596107     -0.132536      0.340937
O       1.108979     -1.144627      1.077765
H      -1.153483     -1.278755      0.103069
H      -1.594986     -1.463200     -1.542802
H      -0.756514      1.005621      0.955794
H      -0.099385      2.163672     -0.272155
H       1.564124     -0.425355     -0.711409
H       1.040487      0.975342      0.447670
H       1.287405     -0.964273      2.005128
