12
Extracted from Q-Chem output
O      -1.446746     -0.554514     -0.757420
C      -0.170425     -0.055336     -0.989437
C       0.365528      0.937109      0.010806
O      -0.502421      1.280385      1.040930
C       0.884341     -0.477934      0.000704
O       0.468361     -1.278081      1.058589
H      -1.903650      0.090410     -0.203208
H       0.087756      0.039748     -2.037408
H       0.998968      1.748327     -0.327434
H      -0.336157      0.663691      1.764789
H       1.895733     -0.673536     -0.335113
H      -0.341288     -1.720269      0.774202
