12
Extracted from Q-Chem output
O      -1.538451     -0.243578     -1.097089
C      -0.226771      0.137399     -1.202211
C       0.336312      1.153677     -0.231333
O      -0.412203      1.029005      0.904163
C       0.836723     -0.200909     -0.220376
O       0.412466     -1.243468      1.678985
H      -1.821977      0.171172     -0.262724
H       0.157472      0.087914     -2.220740
H       0.854932      2.077015     -0.477149
H       0.006239     -0.347402      1.777921
H       1.719795     -0.801475     -0.090126
H      -0.318396     -1.824858      1.448741
