12
smiles: [C-:5]#[O+:6].[C:1](/[C:2](=[C:3](/[O:4][H:12])[H:11])[H:10])([H:7])([H:8])[H:9]
C       -1.83162400       0.28088700      -0.96500800
C       -0.52314100       0.11767000      -0.25630500
C        0.26225100       1.13209000       0.07773600
O        1.45713000       1.05921000       0.71911900
C        2.58372200      -1.92663400       1.40952300
O        3.07260600      -2.90762900       1.65606300
H       -2.65930600      -0.12165200      -0.37536800
H       -2.04359600       1.33335400      -1.16129600
H       -1.83481900      -0.24410100      -1.92378600
H       -0.21167800      -0.89523600      -0.00676500
H        0.00561100       2.16255100      -0.14370300
H        1.66331600       0.13934700       0.90402800
