15
Extracted from Q-Chem output
C      -1.411872      0.134661     -1.027780
C      -1.796884      0.039159      0.399910
C      -0.346301      0.239029      0.048880
C       0.737219     -0.806474      0.273233
C       1.993329      0.048538      0.227704
O       1.514532      1.434069      0.342075
C       0.230899      1.585544      0.220466
H      -1.395603     -0.771906     -1.618902
H      -1.653095      1.039672     -1.568139
H      -2.306175      0.879622      0.851329
H      -2.060151     -0.934279      0.793717
H       0.622439     -1.286111      1.246723
H       0.746010     -1.584090     -0.489994
H       2.531218     -0.011943     -0.718653
H       2.690080     -0.116180      1.047135
