12
smiles: [C:6](=[N:7][H:12])([H:10])[H:11].[O:1]=[C:2]1[C:3]2=[C:4]([H:8])[C@@:5]12[H:9]
O        0.57326600       0.22653500       1.94772600
C        1.28035300       0.39579600       1.01470500
C        2.63717500       1.03485500       0.69580200
C        2.81956300       0.14057400      -0.33293300
C        1.41477900       0.10869600      -0.41376300
C       -2.95991100      -0.37933700      -0.35414300
N       -1.72008000      -0.16109700      -0.29126100
H        3.63775500      -0.15920600      -0.96740000
H        0.78617200       0.42676900      -1.24338800
H       -3.59906800      -0.59218400       0.50882700
H       -3.45036900      -0.35991700      -1.32795400
H       -1.38882800      -0.20848900       0.67143500
