12
Extracted from Q-Chem output
O       0.128185      0.304096      2.329752
C       0.666368      0.187755      1.282690
C       1.977448     -0.368814      0.781071
C       1.729314     -0.465168     -0.470352
C       0.216768      0.408992     -0.143690
C      -1.095177     -0.336638     -0.558104
N      -1.701792      0.889497     -0.414911
H       2.009820     -0.800815     -1.452823
H       0.403826      1.406019     -0.530527
H      -1.303512     -1.146529      0.145766
H      -1.026127     -0.690977     -1.586330
H      -1.955733      1.016997      0.565923
