12
Extracted from Q-Chem output
C       1.243770      0.000285     -0.391546
C       0.255519     -0.724471      0.465243
C       0.612035      0.709177      0.754410
C      -0.780687      0.312121      0.544050
O      -1.506889      0.760235     -0.636733
C      -1.766825     -0.013431     -1.631269
H       0.974710      0.274141     -1.407939
H       2.284077     -0.281458     -0.269518
H       0.390247     -1.609293      1.064837
H       1.067271      1.158502      1.621672
H      -1.457386      0.332302      1.389539
H      -1.333853     -1.021069     -1.382662
