12
Extracted from Q-Chem output
C       1.367083      0.114335     -0.388089
C       0.268994     -0.696017      0.215649
C       0.594330      0.668952      0.746997
C      -0.796363      0.432865      0.348205
O      -1.305008      0.890765     -0.862090
C      -1.317392     -0.420949     -1.337141
H       1.219804      0.510587     -1.387169
H       2.377528     -0.203125     -0.158243
H       0.299182     -1.639458      0.733203
H       0.913683      0.914972      1.745923
H      -1.539270      0.306784      1.131252
H      -2.090497     -0.946904     -0.717990
