12
Extracted from Q-Chem output
N      -1.588908      2.271758     -0.306869
C      -1.418516      1.138288     -0.297528
C       1.521300      0.383275      1.388676
C       1.432465      0.152892     -0.120649
C       0.199283     -0.686518      0.211673
C      -1.176708     -0.302205     -0.301821
O       0.407925     -0.311246      1.599077
H       1.244512      1.080375     -0.664323
H       2.289148     -0.356005     -0.560522
H       0.327342     -1.765204      0.109156
H      -1.285507     -0.668422     -1.325550
H      -1.941934     -0.792533      0.303738
