17
Extracted from Q-Chem output
C      -2.242063      0.244180      0.347363
C      -0.744691      0.140695      0.525909
C      -0.100407     -0.939384     -0.331671
C       1.404480     -0.986555     -0.082690
C       1.944973      0.412116     -0.020599
C       1.146168      1.468546      0.081959
O      -0.200900      1.425712      0.213115
H      -2.725944     -0.680764      0.665386
H      -2.488417      0.425182     -0.700691
H      -2.641794      1.066660      0.941102
H      -0.507835     -0.059809      1.580538
H      -0.300058     -0.707188     -1.382415
H      -0.569063     -1.901966     -0.115592
H       1.621068     -1.526639      0.845451
H       3.010568      0.583546     -0.101025
H       1.509252      2.489103      0.064374
H       1.901207     -1.544290     -0.881001
