13
Extracted from Q-Chem output
C      -0.902275     -1.348590     -0.374959
O       0.234728     -1.409425      0.449209
C       1.043078     -0.364303      0.638023
C       1.001911      0.964375      0.267565
N       0.235172      1.486828     -0.897607
C      -0.371148      1.780373      0.298067
H      -1.607627     -0.588323     -0.023248
H      -1.369016     -2.329008     -0.321770
H       1.876517     -0.670810      1.260231
H      -0.624446     -1.143566     -1.414196
H       1.877401      1.539058      0.528898
H      -0.193560      0.785943     -1.508179
H      -1.330502      1.265252      0.475959
