13
Extracted from Q-Chem output
C      -0.934980     -1.095727      0.021471
O       0.158200     -1.403633      0.844469
C       1.092091     -0.619898      0.165778
C       0.739887      0.849942      0.312584
N       0.348349      1.541973     -0.935070
C      -0.610987      1.114787     -0.037395
H      -1.827439     -0.791500      0.568986
H      -1.191862     -1.973800     -0.581664
H       2.113344     -0.916203      0.415047
H      -0.194587     -0.628668     -0.853917
H       1.280658      1.442224      1.042047
H       0.483612      0.923544     -1.749659
H      -1.545270      1.537949      0.286297
