14
Extracted from Q-Chem output
C       2.347353     -0.154511      0.086393
C       1.027648      0.551104     -0.149402
C      -0.134104     -0.320635     -0.199997
C      -1.445357      0.076241      0.021017
N      -2.427824     -0.798295      0.370476
C      -1.728658      1.362869     -0.439979
O       0.988235      1.764697     -0.261373
H       3.152559      0.575969      0.093239
H       2.526927     -0.887357     -0.703723
H       2.332446     -0.694654      1.035129
H       0.041318     -1.374337     -0.400290
H      -2.199845     -1.776008      0.418210
H      -3.370036     -0.564169      0.110854
H      -1.106879      2.147939      0.000077
