13
Extracted from Q-Chem output
N       3.171747     -2.013424      0.793826
C       2.193055     -1.592901      0.331690
C       1.085784     -1.095393     -0.352019
C      -0.042105     -0.667074      0.463913
C      -1.090456      0.182757     -0.241377
C      -0.570183      1.584007     -0.531483
H       0.319504      1.538603     -1.164602
H      -0.448047     -1.685480      0.667143
H       0.223074     -0.284194      1.458996
H      -1.369471     -0.312203     -1.174246
H      -1.988586      0.235346      0.379553
H      -0.299838      2.105826      0.390071
H      -1.318844      2.185358     -1.048251
