12
Extracted from Q-Chem output
C      -0.942342      0.397175     -0.128308
C       0.356716      1.128114     -0.010885
C       1.457678      0.454929      0.338864
C       1.342211     -0.859820      0.993359
O       0.284607     -1.545889      0.667121
C      -0.642102     -1.062797     -0.347877
H      -1.559431      0.552692      0.764239
H      -1.515784      0.776843     -0.977088
H       0.374838      2.198564     -0.191598
H       2.420597      0.944789      0.409324
H      -0.170389     -1.217286     -1.321589
H      -1.517535     -1.702189     -0.261363
