17
smiles: [C:1]([C@@:2]1([H:11])[C@:3]([O:4][H:13])([H:12])[C:5]([H:14])=[C:6]1[H:16])([H:8])([H:9])[H:10].[O:7]([H:15])[H:17]
C       -1.77968700      -0.13263200      -0.08695900
C       -0.73311600      -0.01104700       1.00466400
C        0.62077600      -0.75207200       0.75165300
O        0.62765900      -1.51236100      -0.43459100
C        1.25470200       0.62325600       0.73710500
C        0.11296300       1.24577600       1.01677500
O        0.85337300       0.46933600      -2.62269300
H       -2.60329000       0.56073300       0.09814500
H       -2.18843700      -1.14399800      -0.12260700
H       -1.35377400       0.09082700      -1.06525800
H       -1.17482400      -0.25898900       1.97550800
H        0.92856800      -1.37075600       1.60394600
H        1.49941100      -1.89259400      -0.55150300
H        2.27696000       0.95694600       0.60402500
H        0.74182500      -0.26687900      -2.02001700
H       -0.13801100       2.28119500       1.21732900
H        0.82984000       1.25384000      -2.07328200
