17
Extracted from Q-Chem output
C      -1.666051     -0.393036     -0.351943
C      -0.631720      0.100279      0.637073
C       0.615719     -0.809222      0.919231
O       0.687621     -2.048104      0.247745
C       1.481873      0.326013      0.414788
C       0.348667      1.200011      0.257354
O       0.501628      1.375369     -1.506760
H      -2.353036      0.405756     -0.642457
H      -2.251550     -1.199707      0.090051
H      -1.202401     -0.807564     -1.249620
H      -1.126098      0.389553      1.569237
H       0.705208     -1.040139      1.983611
H       1.152836     -1.896505     -0.577493
H       2.467044      0.605932      0.770377
H       1.237848      0.576073     -1.053039
H       0.226514      2.252606      0.486577
H      -0.241330      0.992320     -1.990791
