13
Extracted from Q-Chem output
C       0.237064     -0.762496      1.140364
C      -1.611575     -0.029762     -0.535291
C      -0.571613      0.743172     -0.976730
C       0.672948      0.822611     -0.365981
C       1.329896     -0.368822      0.268705
H      -0.272716     -1.709140      1.050352
H       0.028485     -0.160402      2.014045
H      -2.390372     -0.367368     -1.213027
H      -1.827182     -0.100398      0.517204
H      -0.698365      1.320674     -1.895008
H       1.235745      1.752857     -0.404262
H       1.633318     -1.128579     -0.453705
H       2.211201     -0.032667      0.820662
