14
Extracted from Q-Chem output
C      -2.139836      0.874104      0.334174
C      -1.107944      0.091581     -0.409695
C       0.145137     -0.091168     -0.011867
C       1.259241     -0.864139     -0.671865
N       2.196196     -0.893000      0.439329
N       1.823542      0.008803      1.388034
N       0.673774      0.442630      1.200525
H      -2.995342      0.241172      0.584261
H      -1.732622      1.289353      1.253749
H      -2.519667      1.692971     -0.282409
H       0.962473     -1.868858     -0.972864
H      -1.411283     -0.362529     -1.348815
H       1.669715     -0.340088     -1.542600
H       3.190698     -0.920725      0.292604
