14
Extracted from Q-Chem output
C       2.452179     -0.242299      0.040070
C       0.973087     -0.123563      0.014478
C       0.022064     -1.113600      0.094046
C      -1.134548     -0.342980      0.018732
N      -2.385446     -0.805431      0.050089
C      -0.849723      1.125164     -0.107836
O       0.560015      1.177137     -0.102756
H       2.883594      0.205385     -0.857974
H       2.730526     -1.290251      0.101775
H       2.856866      0.296717      0.899998
H      -1.225009      1.552262     -1.041385
H      -2.508825     -1.799555      0.138082
H      -3.193611     -0.214367     -0.004967
H      -1.236021      1.706824      0.733170
