14
Extracted from Q-Chem output
C      -1.562646      1.189868      0.082397
C      -0.895514     -0.118010      0.435781
C      -0.464249     -1.108642     -0.648685
C       0.506359     -0.342709      0.108817
C       1.804438     -0.031935      0.287238
C       2.751985     -0.708782     -0.534612
H      -1.160438      1.590790     -0.849539
H      -1.401529      1.933512      0.864302
H      -2.637482      1.049474     -0.043072
H      -1.232911     -0.574163      1.362784
H      -0.605398     -0.836232     -1.689052
H      -0.546989     -2.169578     -0.445480
H       2.043012      0.714456      1.048233
H       3.758792     -0.340023     -0.257636
