11
Extracted from Q-Chem output
C       2.529507      0.046254      0.464079
C       1.432231      0.285702      0.050707
C       0.079222      0.541799     -0.436929
C      -0.881952     -0.474304      0.154825
C      -2.375045     -0.315231     -0.764188
N      -2.636402      0.110388      0.309697
H       3.510179     -0.157032      0.825160
H      -0.233844      1.548078     -0.152195
H       0.056693      0.491849     -1.526648
H      -0.690861     -1.498244     -0.151464
H      -0.881995     -0.438708      1.241235
