10
Extracted from Q-Chem output
O       2.132963     -1.018703      0.245520
C       1.375910      0.082803      0.346444
N       0.135627      0.064691      0.100270
C      -1.046373      0.859504     -0.074557
C      -1.032607     -0.641801     -0.218103
H       1.892518      0.974273      0.671519
H      -1.473599      1.291172      0.826247
H      -0.986316      1.539110     -0.924544
H      -1.024531     -1.032030     -1.236019
H       1.559915     -1.776948      0.079011
