10
Extracted from Q-Chem output
O       1.770486     -1.101386      0.444039
C       1.404407      0.126057      0.256757
N       0.260772      0.309516     -0.303280
C      -1.089936      0.718213     -0.012152
C      -0.749770     -0.738312     -0.293008
H       2.065776      0.924903      0.572290
H      -1.278371      1.036887      1.009800
H      -1.526278      1.357459     -0.773762
H      -1.003760     -0.982604     -1.328573
H       0.865530     -1.578581      0.348475
