12
Extracted from Q-Chem output
N      -2.433253      0.035363      0.216744
C      -1.428982      0.779914     -0.281782
C      -0.579205      1.466687     -0.788266
N       2.326602      0.257149      0.778946
C       1.555730     -0.561987      0.226072
C       0.346845     -0.932425     -0.265702
H      -3.096983      0.543764      0.778750
H      -2.106332     -0.817918      0.647300
H       0.203001      2.086605     -1.155935
H       3.198665     -0.154438      1.088549
H       1.718058     -1.723661      0.087353
H       0.333957     -1.105705     -1.343588
