15
Extracted from Q-Chem output
C       1.685417     -0.560149     -0.403093
C       0.651228      0.179279      0.410029
C      -0.513813      0.965961     -0.241702
N      -1.198773      0.858718      1.043859
C      -0.612706     -0.519380      1.020238
C      -1.243784     -1.189446     -0.234066
N      -1.161295     -0.140335     -1.016020
H       1.240011     -1.171714     -1.187583
H       2.381762      0.143485     -0.864725
H       2.267493     -1.220558      0.242012
H       1.113004      0.796723      1.180059
H      -1.419986     -0.111405     -1.987689
H      -0.442251      1.921693     -0.758280
H      -2.211468      0.868241      0.950776
H      -0.588181     -1.083740      1.947528
