11
Extracted from Q-Chem output
C      -1.086193     -0.509025      0.761744
C      -0.610281      0.803906      0.765439
N      -0.369327      1.940094      0.916858
O       1.150065      0.593397     -0.807086
C       1.318561     -0.550449     -1.277673
O       0.651060     -1.572585     -0.979416
H      -2.099099     -0.554131      0.364236
H      -0.994838     -0.960020      1.748773
H      -0.341731     -1.079009     -0.005401
H       0.364583      2.473850      0.467828
H       2.124019     -0.689332     -2.026120
