14
smiles: [C:2](=[C:3]=[C:4]1[C@@:5]2([H:11])[C:6]([H:12])([H:13])[N:7]12)([H:9])[H:10].[O:1]([H:8])[H:14]
O       -1.20055000      -1.09280700       3.08375700
C        2.62780400       0.65885000      -1.59046600
C        1.52501800       0.50230500      -0.91648300
C        0.44844800       0.35542000      -0.22957700
C       -0.66256500       0.83922400       0.54175800
C       -1.64563600      -0.06310000      -0.06988700
N       -0.36567800      -0.63864400       0.40620300
H       -1.16967000      -1.94464100       3.52129200
H        3.58953300       0.70898200      -1.09121700
H        2.62065500       0.74025700      -2.67209600
H       -0.67956100       1.35505200       1.48978700
H       -1.81356500      -0.01339000      -1.14171700
H       -2.49353200      -0.37570500       0.52983300
H       -0.70205500      -1.20435700       2.27325700
