13
smiles: [C:2]([H:7])[H:8].[O:1]([C:3]1([H:9])[C:4]([H:10])([H:11])[C:5]1([H:12])[H:13])[H:6]
O        1.04068400      -0.62926700       0.38763200
C        1.93392600       0.52623800       1.22179100
C        0.08819800      -0.21639300      -0.54336900
C       -1.12364200       0.55713500      -0.14398100
C       -1.25054100      -0.86691100      -0.64529300
H        0.59832700      -0.89071100       1.19736800
H        1.36015100       1.43835300       0.95563600
H        2.77705400       0.56410300       0.50081900
H        0.58331300       0.06508200      -1.46347200
H       -1.28114000       0.72330500       0.91525800
H       -1.46234300       1.36720100      -0.77647400
H       -1.48918500      -1.62779100       0.08858900
H       -1.67872400      -1.04252800      -1.62346800
