16
Extracted from Q-Chem output
C       1.450162     -0.514372      1.064303
C       0.472451      1.010419     -0.554562
C      -0.184903     -0.091233     -1.338411
C      -1.364443     -0.463196     -0.399954
C      -1.082658      0.413841      0.813237
O      -0.335447      1.478409      0.348938
H       2.011372      0.214950      1.648228
H       2.035755     -0.803986      0.193336
H       1.323501     -1.417363      1.671187
H       1.248021      1.679547     -0.901212
H      -0.535910      0.284327     -2.304833
H       0.495110     -0.917353     -1.542336
H      -1.368955     -1.520612     -0.133173
H      -2.324592     -0.233817     -0.868149
H       0.152291     -0.217922      1.172822
H      -1.885640      0.738561      1.464990
