16
smiles: [C:1](=[C:2]1[C:3]([C:4]([H:11])([H:12])[H:13])=[C:5]=[C:6]([H:15])[N:7]1[H:16])([H:8])[H:10].[H:9][H:14]
C       -1.07005800       1.37024300       0.03804400
C        0.05813300       0.71425600       0.28039000
C        0.33254200      -0.72249100       0.48197400
C       -0.76611100      -1.73125700       0.42830300
C        1.66735200      -0.97384800       0.70761800
C        2.20411200       0.35170700       0.64094500
N        1.32415400       1.32329900       0.39950700
H       -2.00358800       0.82838100      -0.03567900
H       -0.93089800      -0.22455800      -2.66411600
H       -1.10415000       2.44550800      -0.09072700
H       -0.34378100      -2.72123300       0.58687600
H       -1.27824500      -1.72068400      -0.53858000
H       -1.52118500      -1.54640400       1.19844600
H       -1.23387400      -0.50415600      -3.28413500
H        3.24482800       0.63834600       0.76827600
H        1.50840700       2.30792000       0.31793900
