16
Extracted from Q-Chem output
C      -1.014104      1.067646     -0.694884
C      -0.242228      0.602978      0.359727
C       0.003084     -0.791540      0.573204
C      -1.068449     -1.786896      0.861947
C       1.321043     -1.049384      0.224069
C       1.814390      0.293648     -0.046666
N       0.981012      1.273731      0.470054
H      -1.853832      0.476926     -1.040872
H       0.221467      0.659921     -1.565191
H      -1.047784      2.122173     -0.948755
H      -1.929153     -1.658615      0.195682
H      -1.443593     -1.686637      1.883636
H      -0.675620     -2.793474      0.729536
H       1.126553      0.357834     -1.427993
H       2.841180      0.547726     -0.288179
H       1.042473      2.205912      0.086523
