8
Extracted from Q-Chem output
O      -2.857564      0.175743      0.599101
C      -1.759671      0.190050      0.136564
C      -1.052028      0.444959     -1.100682
C      -0.098105      0.131402     -0.257944
C       1.183511     -0.120275      0.223317
C       2.285155     -0.338613      0.642048
H      -0.905896     -0.122366      1.013564
H       3.268115     -0.531511      1.006716
