14
Extracted from Q-Chem output
C       1.923229     -0.560106     -0.226731
O       0.983757      0.209401      0.489251
C      -0.071291      0.666742     -0.290177
C      -1.187309     -0.292641     -0.623583
C      -1.366801      0.756844      0.440071
O      -1.398556      0.385379      1.776927
H       2.689802     -0.872090      0.480742
H       1.455298     -1.445221     -0.670804
H       2.389867      0.029593     -1.023847
H       0.197578      1.436022     -1.010363
H      -1.702139     -0.189882     -1.569843
H      -1.073649     -1.306891     -0.260769
H      -0.496976      0.156993      2.028271
H      -2.020095      1.594964      0.229795
