12
Extracted from Q-Chem output
C       1.109942     -0.363622     -0.433951
C       0.343586      0.920651     -0.162103
C      -1.123384      0.527220     -0.324617
O      -1.172526     -0.829303     -0.736244
C      -0.102529     -1.060690      0.210348
C      -0.440745      0.268276      0.962941
H       1.995815     -0.435526      0.197306
H       1.339111     -0.643089     -1.464221
H       0.681461      1.944888     -0.234010
H      -1.918447      1.202212     -0.604834
H      -0.075741     -2.073348      0.601200
H      -0.636543      0.542329      1.988186
