15
Extracted from Q-Chem output
C      -2.470990     -0.207730      0.092716
C      -1.026362      0.183492      0.051455
C      -0.603922      1.466573     -0.214880
N       0.916785      1.226174     -0.250927
C       1.229700     -0.079906      0.101752
N       2.576387     -0.445225      0.249675
C       0.054638     -0.727133      0.288759
H      -2.691900     -0.999005     -0.628347
H      -2.756171     -0.577572      1.081144
H      -3.096544      0.652765     -0.141489
H       0.342209      1.447960     -1.235555
H       1.541364      1.992920     -0.051519
H       2.675320     -1.288692      0.792986
H       3.058560     -0.557079     -0.631821
H      -0.039543     -1.776553      0.534875
