17
Extracted from Q-Chem output
C       2.119482     -0.500510     -0.472989
C       0.866849     -0.613981      0.354215
O       0.531239      0.608186      1.038316
C      -0.862345      0.457242      0.700634
C      -1.512255      1.741007      0.260326
C      -0.509562     -0.613293     -0.329385
O      -1.306186     -1.764136     -0.271518
H       2.980711     -0.291786      0.163698
H       2.308677     -1.436127     -1.005131
H       2.027251      0.307532     -1.201218
H      -1.104832     -2.327966     -1.019320
H       0.936040     -1.445132      1.068154
H      -1.409358      0.004166      1.537185
H      -2.544528      1.550841     -0.041830
H      -1.523038      2.463999      1.077496
H      -0.972432      2.179594     -0.580850
H      -0.461645     -0.205057     -1.346281
