14
smiles: [H:7][H:8].[O:1]=[C:2]([C:3]([C:4]([C:5](=[O:6])[H:14])([H:12])[H:13])([H:10])[H:11])[H:9]
O        1.72121000       0.34793900      -0.74856000
C        0.89008600      -0.03390000      -1.52532000
C       -0.39691900      -0.70807600      -1.12933700
C       -0.65230400      -0.66827200       0.36328100
C       -1.06387300       0.69500100       0.85293900
O       -1.31932700       1.62304800       0.13639300
H        1.91734900       0.96182300       1.78769000
H        1.81128200       1.09549900       2.51251900
H        1.04622900       0.07940800      -2.61714900
H       -0.34277000      -1.73811700      -1.49849300
H       -1.20868700      -0.22788400      -1.68247200
H       -1.44873800      -1.36355100       0.65018900
H        0.23455000      -0.97115600       0.92667500
H       -1.14036100       0.79725800       1.95429900
