14
Extracted from Q-Chem output
C      -1.883086     -0.869153      0.351799
C      -1.076211      0.345164      0.145016
C       1.126177      1.210808     -0.860113
C       0.207527      0.047949     -0.470328
C       1.145586     -0.023343      0.792529
O       1.907543      1.083376      0.340760
H      -1.369284     -1.840312      0.306706
H      -2.549740     -0.810459      1.212091
H      -2.543180     -0.811688     -0.531963
H       1.737700      1.042767     -1.750786
H       0.624975      2.178700     -0.913968
H       0.271277     -0.850084     -1.095762
H       1.716109     -0.954760      0.837154
H       0.670389      0.163849      1.760436
