14
Extracted from Q-Chem output
C      -1.757061     -0.459484      0.547482
C      -0.745187      0.378104     -0.165143
C       0.902541      1.166032     -0.918560
C       0.485561     -0.268784     -0.819876
C       1.120102     -0.444435      0.536855
O       0.464679      0.830898      0.837438
H      -1.358067     -1.277996      1.168051
H      -2.397789      0.161337      1.174326
H      -2.398411     -0.907516     -0.216999
H       1.903581      1.503136     -0.644827
H       0.336885      1.829655     -1.555240
H       0.489896     -0.950448     -1.667145
H       2.209371     -0.377810      0.627707
H       0.735086     -1.235213      1.178488
