16
Extracted from Q-Chem output
C       2.411465     -0.439752      0.052583
C       1.061605     -0.103794     -0.106028
C      -0.093204     -0.867494     -0.394935
C      -1.181158     -0.088068     -0.030888
C      -2.631143     -0.445955     -0.132668
C      -0.640182      1.166907      0.351112
N       0.683196      1.140547      0.284180
H       2.907672     -0.357929      1.010926
H       2.853561     -1.183180     -0.610009
H       2.869816      1.166073     -0.019297
H      -0.112656     -1.905843     -0.695367
H      -3.189237      0.287896     -0.718523
H      -3.102924     -0.505451      0.851015
H      -2.755155     -1.414648     -0.618724
H      -1.181190      2.090201      0.510509
H       2.111358      1.592008      0.250403
