17
Extracted from Q-Chem output
C      -1.385236     -0.988794      0.336690
C      -0.490747      0.202049      0.025328
C      -0.943419      0.975077     -1.202778
N       0.900196     -0.229807     -0.164121
C       2.134836      0.674446      0.010467
C       1.789026     -0.397771      0.989979
H      -1.416105     -1.684032     -0.506609
H      -1.031126     -1.528660      1.216218
H      -2.406689     -0.657565      0.528841
H      -0.462406      0.876646      0.885043
H      -0.960669      0.329473     -2.085143
H      -0.268906      1.807409     -1.403193
H      -1.950841      1.366667     -1.056420
H       1.713283      1.621086      0.376238
H       1.008679     -0.906273     -0.907286
H       2.359262     -1.323732      0.996652
H       1.269104     -0.216087      1.931162
