17
Extracted from Q-Chem output
C      -1.474951     -0.886290      0.529055
C      -0.490432      0.167659      0.040422
C      -0.978356      0.858928     -1.222599
N       0.797722     -0.478421     -0.219194
C       2.188296      0.550777     -0.069658
C       1.776966     -0.535296      0.852246
H      -1.638712     -1.642686     -0.240872
H      -1.101652     -1.386049      1.424272
H      -2.434655     -0.426233      0.771859
H      -0.352588      0.921055      0.828757
H      -1.101299      0.133464     -2.030099
H      -0.275295      1.626427     -1.551115
H      -1.943288      1.335938     -1.046705
H       1.742758      1.496142      0.265604
H       1.449215     -0.098678     -1.066479
H       2.350622     -1.457219      0.894842
H       1.343890     -0.259384      1.810736
