13
Extracted from Q-Chem output
N      -2.240259      0.583160     -0.380229
C      -0.918274      0.177456     -0.139370
C      -0.422376     -1.092960     -0.308738
N       0.913375     -1.098790     -0.052309
C       1.277712      0.224822      0.197353
O       2.493604      0.417337      0.787904
C       0.114166      1.073292      0.294814
H      -2.937989     -0.061633     -0.043126
H      -2.400576      1.503994     -0.001679
H      -0.917727     -1.988721     -0.658160
H       1.542660     -1.871215     -0.172038
H       2.421781      1.230650      1.295498
H       1.150508      0.846086     -0.814091
