16
Extracted from Q-Chem output
C      -0.613990     -0.718979      1.254199
C      -0.313123      0.241511      0.107479
C       1.075987      0.811868      0.239472
C       1.361772      2.095578      0.387297
C      -0.758349     -1.632010     -1.540419
C      -0.467247     -0.370367     -1.263318
H      -0.531750     -0.200507      2.210165
H      -1.623001     -1.127796      1.173272
H       0.089484     -1.555185      1.266464
H      -1.015677      1.081675      0.165183
H       0.580951      2.848455      0.426890
H       1.883600      0.082802      0.201051
H       2.383990      2.442668      0.476741
H      -0.932478     -2.371285     -0.767294
H      -0.837744     -1.973024     -2.565421
H      -0.299379      0.322608     -2.084559
