13
Extracted from Q-Chem output
O       1.732894      1.322711     -1.747707
C       1.520466      1.047982     -0.600006
C       0.888230     -0.257599     -0.157075
O       1.133031     -0.449732      1.210802
C      -1.594881     -1.015679      0.266800
C      -1.612398      0.253575      0.498138
C      -0.602142     -0.209555     -0.503988
H       1.753143      1.750115      0.227701
H       1.354527     -1.062206     -0.738829
H      -2.014592     -1.992673      0.433713
H      -2.058559      1.095976      0.997590
H       0.296733     -0.617076      1.656251
H      -0.765530     -0.017064     -1.563324
