13
Extracted from Q-Chem output
O       1.392872      1.747016     -1.427517
C       1.688738      1.009936     -0.525659
C       0.903970     -0.229423     -0.139125
O       0.899974     -0.440576      1.190848
C      -1.210033     -1.131362      0.377573
C      -1.413976      0.220866      0.663058
C      -0.589832     -0.254729     -0.561417
H       2.566854      1.199090      0.125024
H       1.319994     -1.069419     -0.729162
H      -1.664568     -2.104331      0.489091
H      -2.393788      0.674485      0.736608
H      -0.592688      0.538328      1.364248
H      -0.888893     -0.215656     -1.601130
