20
smiles: [C:1]([C@@:2]1([H:11])[N+:3]([C-:4]([H:12])[H:14])=[C:5]1[C:7]([H:18])([H:19])[H:20])([H:8])([H:9])[H:10].[C:6]([H:13])([H:15])([H:16])[H:17]
C       -2.00265500       2.04843200       0.07985100
C       -0.98967800       1.19109800       0.80093100
N       -0.70262100      -0.11938500       0.22089200
C       -1.32645600      -1.17877200      -0.20290300
C        0.28882200       0.73988900       0.20983000
C        2.07225000      -2.46333700       0.50354100
C        1.18686900       1.13332500      -0.90274400
H       -3.02501200       1.81460900       0.38326200
H       -1.81670800       3.09805800       0.31642100
H       -1.92594900       1.92224200      -1.00130500
H       -1.07169700       1.20155300       1.88802400
H       -0.81669600      -1.85242800      -0.87568500
H        1.55254400      -3.29543200       0.97615100
H       -2.29972300      -1.40293200       0.20440300
H        1.65846500      -1.52362900       0.86600700
H        3.13214700      -2.51197400       0.74896100
H        1.94685800      -2.52380200      -0.57653000
H        0.63037500       1.37492800      -1.82046000
H        1.88061100       0.32526700      -1.14074900
H        1.78152100       2.00301100      -0.62499800
