20
Extracted from Q-Chem output
C      -1.706103      1.849469      0.582945
C      -0.759216      0.679378      0.633479
N      -0.861755     -0.324040     -0.427254
C      -1.021760     -1.698373     -0.291920
C       0.261708      0.355411     -0.369650
C       1.531163     -1.376157      0.664754
C       1.279267      0.900000     -1.283393
H      -2.662810      1.600460      1.047629
H      -1.284212      2.701166      1.120489
H      -1.892496      2.151674     -0.448437
H      -0.563115      0.281191      1.632537
H      -0.864255     -2.239886     -1.224187
H       0.238217     -1.736863      0.356754
H      -1.948419     -1.979009      0.204275
H       1.860437     -0.541078      1.284729
H       1.637121     -2.277374      1.277648
H       2.203279     -1.478137     -0.188396
H       0.972624      1.867887     -1.690717
H       1.460096      0.208772     -2.106639
H       2.217459      1.045251     -0.743743
