13
Extracted from Q-Chem output
C       1.680058      0.547708     -0.305714
C       0.500176      0.249029      0.623678
C      -0.490138     -0.587539     -0.119942
O      -1.779435     -0.925141      1.082559
C      -1.202226      0.035987     -1.177723
N      -1.791143      0.470267     -2.071094
H       2.434891      1.121455      0.231755
H       2.139274     -0.373758     -0.665731
H       1.366109      1.132226     -1.172236
H       0.057353      1.187313      0.974865
H       0.853341     -0.302981      1.495545
H      -1.202948     -1.640354      0.535169
H      -2.616192     -0.822031      0.610426
