8
smiles: [N:4]#[C:5][H:8].[O:1]=[C:2]=[C:3]([H:6])[H:7]
O        0.17997500       1.76762000       0.20677700
C       -0.68902400       1.01854700       0.07128100
C       -1.67305800       0.17117200      -0.08149800
N        1.31307900      -1.68448300      -0.16158500
C        2.10526700      -0.88160000       0.02759500
H       -2.68892800       0.53309100      -0.05865500
H       -1.45251800      -0.87426900      -0.22923700
H        2.84522700      -0.13163500       0.20430500
