13
Extracted from Q-Chem output
C       1.413264      0.774526      0.140199
C       0.433308     -0.061488     -0.743300
C      -0.552279     -1.018041     -0.106268
N      -1.171014     -0.425658      1.070859
C       0.304846      1.391240     -0.587688
O      -0.317005      2.378501     -0.832693
H       1.286079      0.681517      1.213614
H       2.430331      0.900855     -0.211627
H      -1.636164     -1.125705      1.629286
H       0.849118     -0.398354     -1.688715
H      -0.014543     -1.915818      0.210828
H      -1.274422     -1.329338     -0.873106
H      -1.860712      0.267492      0.811008
