9
Extracted from Q-Chem output
O      -0.832541      0.543881      0.902187
C      -0.459893      1.113657     -0.352198
C      -0.053458     -0.229295      0.032929
O      -0.644456     -1.292498     -0.589531
C       1.307346     -0.484550      0.507160
N       2.370706     -0.708070      0.872004
H      -0.646187     -2.052604      0.000184
H      -1.262462      1.195154     -1.077708
H       0.247442      1.934422     -0.300869
