17
Extracted from Q-Chem output
C       1.707123     -0.157311      0.648689
C       1.108917      1.019439      0.508742
C       1.099128     -1.227742     -0.222539
C      -0.158129     -0.544053     -0.767951
C      -1.414715     -0.576607      0.136494
C      -1.445287      0.967699      0.154787
C      -0.029459      0.977572     -0.468713
H       2.551003     -0.344215      1.302623
H       0.859141     -2.136106      0.339385
H       1.398280      1.924134      1.031581
H       1.793370     -1.524353     -1.015892
H      -0.374844     -0.795593     -1.805741
H      -1.204955     -1.008974      1.116411
H      -2.294410     -1.070932     -0.275615
H      -2.195171      1.378819     -0.522309
H      -1.553156      1.449079      1.127880
H       0.118087      1.666474     -1.303982
