17
Extracted from Q-Chem output
C       1.200925     -0.059570      1.416716
C       1.221228      0.702228      0.162830
C       1.153365     -0.776661     -0.253734
C      -0.205114     -0.501653     -0.934641
C      -1.478817     -0.674612     -0.075497
C      -1.404456      0.819056      0.336002
C      -0.134310      0.989827     -0.523158
H       2.249966     -0.276288      1.668192
H       0.896858     -1.290907      0.807664
H       2.098520      1.278763     -0.108352
H       1.999827     -1.267001     -0.716395
H      -0.239619     -0.821282     -1.974377
H      -1.396121     -1.390706      0.742977
H      -2.357319     -0.923395     -0.670881
H      -2.247523      1.412188     -0.017893
H      -1.254789      0.992861      1.400461
H      -0.114944      1.786039     -1.264675
