11
Extracted from Q-Chem output
N       2.101137      0.295373     -0.159766
C       0.777149      0.263385     -0.022380
N      -0.070741     -0.780519     -0.568821
N      -0.764960     -1.216069      0.733317
C      -1.055886      0.040144      0.158232
O      -2.299626      0.349619     -0.238160
N      -0.074800      1.052195      0.546152
H       2.570486     -0.481431     -0.584439
H       2.634264      1.010521      0.299117
H      -1.460752     -1.881763      0.394061
H      -2.285397      1.247551     -0.581990
