12
smiles: [C:1]1([H:7])=[C:2]2[C:3]([H:8])([H:9])[C@:4]12[H:10].[C:5](=[O:6])([H:11])[H:12]
C        1.46095700       0.19443100      -0.20798100
C        1.56845800      -1.15483500      -0.02220100
C        0.22388600      -1.29979600       0.76272200
C        0.72746100       0.05791300       0.97790300
C       -1.63812900       1.04319400      -1.10615600
O       -2.02355800      -0.02964300      -1.46741400
H        2.00338300       0.97172100      -0.71937100
H        0.17903800      -1.99679000       1.59602400
H       -0.60676100      -1.40016700       0.07610200
H        1.01879300       0.45187700       1.95090000
H       -0.99211500       1.67794100      -1.74244500
H       -1.90741200       1.45928200      -0.11619300
