13
Extracted from Q-Chem output
O       2.049413     -0.993456      0.176194
C       1.422632      0.164594      0.648966
C      -0.046105      0.275297      0.270016
C      -0.670601     -0.674280     -0.377627
C      -1.264002     -1.632896     -1.019069
C      -0.718413      1.472216      0.675369
C      -1.223853      2.494929      1.043252
H       1.533773     -1.758571      0.442142
H       1.498396      0.255855      1.740863
H       1.956948      1.012177      0.215122
H      -1.287828     -1.647600     -2.103165
H      -1.762993     -2.438189     -0.491158
H      -1.685256      3.398490      1.364764
