13
Extracted from Q-Chem output
O       1.998800     -1.002440     -0.073048
C       1.408539      0.139891      0.476664
C      -0.098876      0.172355      0.319615
C      -0.785385     -0.940795     -0.163408
C      -1.617929     -1.910425     -0.258561
C      -0.771637      1.377807      0.625748
C      -1.319299      2.409826      0.905618
H       1.612211     -1.782730      0.335197
H       1.617229      0.233036      1.552589
H       1.864952      1.001688     -0.013745
H      -0.112680     -0.686177     -1.085493
H      -1.996254     -2.334532     -1.180686
H      -1.816384      3.317291      1.156371
