14
Extracted from Q-Chem output
C      -1.796336      0.703776      0.048290
C      -1.013054     -0.491907     -0.442058
C       0.635386     -0.285153     -0.029475
C       0.620070     -0.134166     -1.314624
N       3.016179      0.008340      0.530697
N       2.234930      0.167216      1.471941
N       0.908853     -0.173546      1.208879
H      -2.861335      0.463367      0.056243
H      -1.496128      0.971124      1.060442
H      -1.637722      1.559906     -0.606786
H      -1.138005     -1.390708      0.165145
H      -1.297938     -0.767722     -1.458554
H       0.797648     -0.884130     -2.070466
H       3.931343      0.308982      0.873875
