11
smiles: [C-:3]#[O+:4].[C:1]([C:2](=[C:5]=[N:6][H:11])[H:10])([H:7])([H:8])[H:9]
C       -1.30710000      -0.57886900       0.64148700
C       -0.24538900       0.46864200       0.83439100
C        2.07957900      -0.97657600      -1.34668300
O        1.91573200      -2.04634900      -1.04536000
C        0.17118400       1.26352500      -0.11319700
N        0.47814000       2.07736000      -0.97162600
H       -2.14486700      -0.41006200       1.32151700
H       -1.69426400      -0.56510500      -0.37706900
H       -0.91582700      -1.57899300       0.84116000
H        0.21907500       0.58415600       1.80698700
H        1.25724700       1.80237300      -1.56431500
