17
Extracted from Q-Chem output
C      -2.354877     -0.404645     -0.159352
C      -1.281744     -0.331876     -1.212129
N      -0.585297      0.917023     -1.505760
C       0.163269     -0.190319     -0.917030
C       0.705643     -0.105120      0.486206
C       2.928758      0.450777      0.858617
N       1.782254      0.865356      0.554218
H      -3.297284     -0.026450     -0.561191
H      -2.115471      0.189821      0.723283
H      -2.519481     -1.436184      0.159726
H      -1.527031     -0.888382     -2.112768
H      -0.781875      1.613001     -0.793631
H       0.861826     -0.645105     -1.614921
H       1.033126     -1.105719      0.807993
H       3.146600     -0.602484      1.081323
H       3.756612      1.155526      0.910387
H      -0.071542      0.228062      1.177156
