19
smiles: [C:1]([C:2]([C@:3]1([H:13])[C:5]([H:15])([H:16])[C:6]([H:17])([H:18])[O:7]1)([H:11])[H:12])([H:8])([H:9])[H:10].[O:4]([H:14])[H:19]
C        2.05821100      -0.54691700       0.69791800
C        1.25497800       0.05693600      -0.44617700
C       -0.05000000      -0.66685800      -0.67879500
O       -0.50792500       1.72157400       2.02037800
C       -1.08123800      -0.02677000      -1.61929900
C       -2.01225600      -0.08619900      -0.40458100
O       -0.95461900      -0.55874800       0.44042100
H        2.98599300       0.00269700       0.86392900
H        1.48058800      -0.52593000       1.62326400
H        2.31828800      -1.58760500       0.48908900
H        1.83033600       0.02662500      -1.37801500
H        1.03588600       1.10923900      -0.23933000
H        0.14313600      -1.72479600      -0.90074100
H       -0.55869400       1.57117400       2.96524200
H       -1.37693300      -0.61541100      -2.48530000
H       -0.81662700       0.98172500      -1.93646500
H       -2.82264400      -0.81757700      -0.48306000
H       -2.42100800       0.86366500      -0.05137500
H       -0.63745500       0.86181500       1.61801900
