19
Extracted from Q-Chem output
C       2.285923     -0.633391      0.739396
C       1.435556     -0.032035     -0.366678
C       0.002010     -0.335709     -0.323327
O      -0.179334      0.923453      1.748426
C      -0.996582      0.350167     -1.164908
C      -2.316224     -0.209622     -0.633287
O      -2.112595     -0.272656      0.719799
H       3.344049     -0.453991      0.548676
H       2.010411     -0.183753      1.691622
H       2.132518     -1.711801      0.811848
H       1.703948     -0.496955     -1.336627
H       1.606890      1.037342     -0.493696
H      -0.296872     -1.292036      0.091644
H      -0.245529      1.879817      1.748695
H      -0.729977      0.228152     -2.227469
H      -0.951608      1.423445     -0.958624
H      -2.496339     -1.206338     -1.082099
H      -3.167795      0.420556     -0.934191
H      -1.085044      0.560379      1.459278
