11
smiles: [C:1]1([H:8])=[C:2]2/[C:3](=[N:7]\[H:11])[C@:4]12[H:9].[C:5](#[N:6])[H:10]
C        2.34939600      -0.42819300      -0.21428200
C        2.07311600       0.91142500      -0.03378000
C        0.58440500       0.61064400       0.11311300
C        1.03832500      -0.49077200      -0.70907500
C       -3.07482700      -0.65025400       0.34520700
N       -3.97223400      -1.33566000       0.16399500
N       -0.45499500       1.04527900       0.65181100
H        3.23457100      -1.04048300      -0.27317000
H        0.70806800      -0.76980200      -1.70789400
H       -2.23724200      -0.00935800       0.51530700
H       -0.26351100       1.91452700       1.14561500
