17
Extracted from Q-Chem output
O       1.760352     -0.810778      1.138049
C       1.298906     -0.653804     -0.103903
C      -0.045423     -1.335264     -0.429167
C      -1.208917     -0.683883      0.290353
C      -1.331248      0.790167     -0.147592
C      -0.074123      1.503147      0.144673
C       1.178505      0.911308     -0.030532
H       1.674292      1.033178      1.001623
H       2.017893     -0.928733     -0.899908
H       0.052096     -2.383857     -0.144744
H      -0.216429     -1.302450     -1.512753
H      -1.050957     -0.738435      1.370392
H      -2.149370     -1.189739      0.065661
H      -1.490966      0.792633     -1.236592
H      -2.185641      1.288013      0.310400
H      -0.125323      2.438822      0.695847
H       1.947736      1.367199     -0.652687
