11
Extracted from Q-Chem output
N       1.966507     -0.059680      0.098760
C       0.604092     -0.100422      0.037746
C      -0.250043      1.083362     -0.219094
N      -1.472138      0.742596     -0.275551
C      -1.469902     -0.696159     -0.063250
N      -0.116424     -1.152650      0.134663
H       2.416263     -0.888804      0.447007
H       2.399529      0.809161      0.353088
H       0.084201      2.108353     -0.348450
H      -1.925363     -1.181312     -0.932267
H      -2.094667     -0.932031      0.803672
