13
Extracted from Q-Chem output
C      -0.832714      0.307008      1.023191
C      -0.564445     -0.827043      0.038114
O      -1.123015     -0.140912     -1.096748
C      -0.403693      1.049183     -0.803974
C       1.048793      0.539459     -0.780713
O       1.649223      0.185010      0.459492
C       0.936992     -0.811587     -0.268918
H      -1.898298      0.437802      1.204605
H      -0.206757      0.428769      1.900332
H      -1.025272     -1.799741      0.224527
H      -0.804789      1.450814      0.285322
H       1.721944      0.866656     -1.562708
H       1.490467     -1.682092     -0.594534
