11
Extracted from Q-Chem output
N       1.854552     -0.049398     -0.068323
C       0.508779      0.025227      0.190438
C      -0.376148      1.025816     -0.164032
N      -1.627766      0.681350     -0.383034
C      -0.932259     -1.237189      0.256666
N      -0.037108     -1.136043      1.062545
H       2.392612     -0.533217      0.633121
H       2.137018     -0.290324     -1.004450
H      -0.010620      2.049901     -0.224841
H      -2.281453      1.425878     -0.133187
H      -1.624981     -1.944939     -0.168724
