16
Extracted from Q-Chem output
C       2.999853      0.569768      2.522513
C       2.023463      0.445646      1.448336
C       1.212334      0.343703      0.568409
C       0.273229      0.223671     -0.499993
C      -1.043734      0.115533     -0.335838
C      -2.022589     -0.032000     -1.463001
N      -2.800701     -1.266864     -1.438431
H       2.916878      1.541403      3.012694
H       4.015420      0.470631      2.136261
H       2.845386     -0.203440      3.276984
H      -2.183625     -2.067433     -1.389674
H       0.686181      0.226698     -1.505974
H      -1.452183      0.108276      0.672401
H      -1.492310      0.024039     -2.417300
H      -2.727516      0.804588     -1.451028
H      -3.394890     -1.301226     -0.620488
