16
Extracted from Q-Chem output
C       2.677568      0.227265      2.425428
C       1.738156      0.340180      1.313606
C       0.976273      0.436635      0.383101
C       0.072677      0.486073     -0.725255
C      -1.359275      0.264312     -0.385778
C      -2.212665     -0.077433     -1.532652
N      -1.540024     -1.180651     -0.831070
H       3.538842     -0.391109      2.160985
H       2.197189     -0.232671      3.291885
H       3.050512      1.205299      2.738487
H      -0.413167     -1.055047     -1.138708
H       0.246464      1.309954     -1.414910
H      -1.836960      0.513275      0.557822
H      -1.844644      0.110092     -2.533649
H      -3.287112     -0.059036     -1.409880
H      -2.100943     -1.869833     -0.340326
