16
Extracted from Q-Chem output
C       1.791860     -0.248658      0.291885
C       0.435525      0.149802     -0.227758
C      -0.470026      1.754357      0.081760
C      -0.730442      0.476701      0.744870
C      -1.669108     -0.477306     -0.003131
C      -0.516776     -0.804211     -0.980513
H       2.173802      0.498113      0.989867
H       2.514432     -0.352305     -0.519875
H       1.734165     -1.204617      0.817200
H       0.305039      2.259376      0.683893
H       0.495899      1.114023     -0.881318
H      -0.539928      0.351153      1.807533
H      -1.995018     -1.336745      0.582530
H      -2.535162      0.014682     -0.443281
H      -0.684242     -0.557797     -2.028339
H      -0.172813     -1.836533     -0.911909
