12
smiles: [C:1](=[C:2]([H:8])[H:9])([H:5])[H:7].[H:6][H:10].[O:3]=[C:4]([H:11])[H:12]
C       -1.69422700       0.07888200      -0.03251300
C       -1.09389200      -0.53039800      -1.04040700
O        1.71803900       1.31254800      -0.29713600
C        1.98800400       0.46335900       0.50033600
H       -2.55855800      -0.35272100       0.45922900
H       -0.25477600      -0.34302300       2.58346900
H       -1.34632900       1.03459200       0.34282500
H       -0.22955600      -0.09882800      -1.53215900
H       -1.44186100      -1.48610500      -1.41568500
H        0.10250600      -0.32873800       3.23658000
H        1.48450200      -0.52250900       0.49865700
H        2.75603000       0.61827500       1.28234400
