12
Extracted from Q-Chem output
C      -1.484949      0.020368      0.356037
C      -0.812707      0.016468     -0.832385
O       1.315345     -0.035561     -0.440430
C       1.649833     -0.054475      0.764445
H      -1.943643     -0.893021      0.720183
H      -0.353296     -0.014060      1.289881
H      -1.903139      0.945582      0.737443
H      -0.608772      0.933875     -1.363501
H      -0.651045     -0.899213     -1.380729
H       0.470468     -0.038304      1.631285
H       2.000167     -0.995202      1.220857
H       2.039307      0.861465      1.239053
