8
Extracted from Q-Chem output
C      -0.527766     -1.121542     -0.168510
N      -0.999475      2.358573     -0.172329
N      -0.127031      1.661062     -0.082540
N       0.891689      0.986785      0.010371
C       0.706001     -0.439366      0.110613
N      -0.314493     -0.996189      1.059232
H      -1.296467     -1.504150     -0.827222
H       1.667716     -0.931833      0.068233
