18
Extracted from Q-Chem output
C       1.888184      1.312122     -0.313930
C       1.454788     -0.056109      0.263617
C       0.430231     -0.528382     -0.691157
C      -1.160358     -1.805861      0.399705
C      -0.973908     -0.400368     -0.237332
C      -1.398283      0.699525      0.738094
H       2.272681      1.200846     -1.327105
H       1.060220      2.021957     -0.338607
H       2.670780      1.732719      0.317312
H       1.144456      0.079437      1.308332
H       2.327792     -0.712029      0.235090
H      -0.879944     -2.604108     -0.287250
H      -0.570930     -1.905172      1.313411
H      -2.213115     -1.924768      0.658577
H      -1.629789     -0.373400     -1.112570
H      -2.458962      0.593794      0.976741
H      -1.259478      1.690744      0.302677
H      -0.846924      0.662238      1.679024
