13
Extracted from Q-Chem output
O      -0.459873      0.160202      1.508354
C      -0.852114     -0.986875      0.764168
C       0.312078     -1.219051     -0.216962
O       1.266175     -0.228679      0.142074
C       0.542114      0.783836      0.767007
N      -0.061423      1.636100     -0.233305
H      -0.638190      2.339980      0.207695
H      -0.990103     -1.807787      1.468156
H      -1.789977     -0.801503      0.236265
H       0.785481     -2.193759     -0.102643
H      -0.006804     -1.087608     -1.253119
H       1.212452      1.295543      1.465315
H       0.652541      2.095468     -0.782892
