13
Extracted from Q-Chem output
C      -0.789711      1.133984     -0.249663
C      -0.269189     -0.153658      0.339952
N      -0.929064     -0.789940      1.385955
O      -0.953740     -1.366486     -0.158112
C       1.230670     -0.363276      0.224227
O       1.770183     -0.058199     -1.044522
H      -1.880785      1.145956     -0.226120
H      -0.439313      1.957740      0.375257
H      -0.419242      1.300431     -1.261526
H      -1.841588     -1.103772     -0.432202
H       1.445428     -1.389243      0.535443
H       1.705725      0.309980      0.941936
H       1.561037     -0.777800     -1.642341
