13
Extracted from Q-Chem output
C      -0.728143      1.286901     -0.136207
C      -0.237480     -0.023377      0.402915
N      -0.969582     -0.713387      1.299381
O      -0.861661     -1.600152      0.012413
C       1.225979     -0.339542      0.159482
O       1.620609     -0.240630     -1.189810
H      -1.672173      1.144331     -0.663845
H      -0.952666      1.915388      0.730535
H      -0.011231      1.778950     -0.791349
H      -1.720194     -1.411236     -0.381466
H       1.456189     -1.311799      0.601671
H       1.791200      0.422737      0.707170
H       1.239089     -0.986366     -1.658009
