10
Extracted from Q-Chem output
C      -0.736051     -0.832855     -0.099614
C      -0.751248      0.657934      0.201023
N       0.636225      1.065685      0.037327
C       1.368662      0.020709     -0.099404
O       0.690999     -1.118315     -0.269500
H      -1.099274     -1.471603      0.710225
H      -1.248935     -1.124023     -1.024666
H      -1.434013      1.315968     -0.324137
H       0.240480      1.517227      0.967738
H       2.445946     -0.025717     -0.079264
