14
Extracted from Q-Chem output
C       1.793465     -0.883590     -0.253856
C       0.625150     -0.083906      0.304937
C      -0.603452     -0.142466     -0.594996
C      -1.783841      0.644319     -0.078550
C      -1.773524      1.328854      1.036333
O      -1.770480      1.937599      2.023513
H       2.661355     -0.831507      0.405199
H       1.529836     -1.937209     -0.373322
H       2.098008     -0.505599     -1.232759
H       0.926010      0.960270      0.439546
H      -0.337683      0.226476     -1.591320
H      -0.902942     -1.187573     -0.727219
H      -2.716064      0.671165     -0.628625
H       0.363339     -0.460292      1.299184
