11
Extracted from Q-Chem output
O      -1.695101     -0.395463     -0.285363
C      -0.921519      0.743121     -0.005247
C       0.556538      0.441577      0.033812
C       1.068862     -0.871017      0.402231
O       1.010696     -0.461891     -0.962721
H      -1.315601     -0.808393     -1.067334
H      -1.098540      1.532968     -0.747889
H      -1.243580      1.124443      0.966322
H       1.199297      1.307832      0.180323
H       0.368097     -1.652902      0.675598
H       2.070852     -0.960275      0.810269
