11
Extracted from Q-Chem output
O      -1.673662     -0.465268     -0.289974
C      -0.984091      0.707850      0.089413
C       0.467719      0.594917      0.408429
C       1.041503     -0.757209      0.447897
O       1.271700     -0.275768     -0.893572
H      -1.336935     -0.737964     -1.147215
H      -1.135312      1.508399     -0.642950
H      -1.439078      1.057948      1.023915
H       1.427172      0.786653     -0.571986
H       0.364974     -1.605671      0.421288
H       1.953075     -0.931965      1.013718
