14
Extracted from Q-Chem output
N       1.389789      0.602753      0.703546
C       1.271193      0.105323     -0.580332
O       0.965931     -1.263086     -0.632019
C      -0.308360     -0.729955     -1.092967
C      -0.992281     -0.400002      0.274604
C      -0.066383      0.500796      1.161483
C       0.393246      0.552891     -1.500984
H       1.970091     -0.001932      1.271072
H      -0.875060     -1.381954     -1.761869
H      -1.212740     -1.345066      0.774531
H      -1.940008      0.116902      0.109075
H      -0.066435      0.138841      2.189616
H      -0.451114      1.519578      1.164809
H       0.022868      1.558381     -1.631321
