16
Extracted from Q-Chem output
C       1.263176     -1.239864      0.142935
C       0.537682     -0.030016      0.623093
O       1.603999      1.326928     -0.252787
C      -0.663436      0.443604      0.035749
C      -1.473076     -0.371197     -0.937585
O      -1.431505      1.309114      0.846106
H       1.287053     -1.281375     -0.944743
H       0.734232     -2.128194      0.504327
H       2.285637     -1.263102      0.511720
H       0.746530      0.295029      1.637259
H       1.778802      2.082658      0.319395
H       0.352172      1.224256     -0.487485
H      -0.842143     -0.950121     -1.612154
H      -2.139648     -1.076602     -0.423690
H      -2.095237      0.285286     -1.546537
H      -2.075236      0.787702      1.333091
