12
Extracted from Q-Chem output
C      -1.811560     -0.434126      0.702905
N      -0.574781     -0.102139      0.211150
C       0.448006     -1.017335     -0.038324
C       1.554466     -0.339433     -0.434777
N       1.236054      0.977013     -0.441428
C      -0.072594      1.110169     -0.053757
H       1.846114      1.735235     -0.673494
H      -2.092285     -1.463366      0.538104
H      -2.565354      0.332124      0.598626
H       0.286662     -2.070031      0.108296
H       2.527696     -0.705347     -0.711728
H      -0.600829      2.038237      0.053002
