12
Extracted from Q-Chem output
C      -1.453602     -0.173555     -0.134820
N      -0.325565     -0.149633      0.772977
C       0.697401     -1.040816      0.342289
C       1.528676     -0.309920     -0.388351
N       1.042139      1.045145     -0.426498
C       0.201263      1.091336      0.637273
H       0.009410      0.671489     -1.121249
H      -2.060371     -1.075896     -0.063136
H      -2.040256      0.742247     -0.124353
H       0.618277     -2.101227      0.514075
H       2.383738     -0.594618     -0.977917
H      -0.419516      1.956450      0.828285
