13
Extracted from Q-Chem output
O       2.087567      0.136058     -1.901626
C       0.991912      0.010510     -1.432824
C       0.681486     -0.885368     -0.256127
C      -0.688842     -0.647704      0.355971
C      -0.855398      0.716770      0.954675
N       0.051223      1.590176      0.862245
H       0.749494     -1.914944     -0.622061
H       1.477941     -0.753838      0.477525
H      -1.478838     -0.785345     -0.393208
H      -0.898575     -1.392358      1.129820
H       0.121309      0.531905     -1.886780
H      -1.810318      0.899465      1.462652
H      -0.218088      2.461826      1.310747
