13
Extracted from Q-Chem output
O       1.676897      0.992095     -1.382407
C       0.846413      0.426723     -0.723645
C       0.657596     -1.004658     -0.216728
C      -0.717205     -0.835945      0.438029
C      -0.810059      0.668486      0.414447
N       0.369249      1.196197      0.761703
H       0.669151     -1.723480     -1.035164
H       1.463332     -1.230599      0.481778
H      -1.528667     -1.309186     -0.112230
H      -0.737027     -1.183880      1.473564
H      -0.416503      0.571860     -1.132869
H      -1.755025      1.210117      0.445922
H       0.410609      2.200278      0.622890
