12
Extracted from Q-Chem output
N       0.385641      1.640183      0.333655
C       0.864672      0.729762     -0.501762
C       1.523357     -0.457240     -0.262095
O       1.380864     -1.416451      0.700716
N       0.031192     -1.521280      0.970429
C      -0.523532     -0.900157     -0.001450
N      -1.792355     -0.487486     -0.051868
H       0.300162      1.505627      1.331709
H      -0.009010      2.485402     -0.034911
H       2.423135     -0.683523     -0.832999
H      -2.244368     -0.405542     -0.942764
H      -2.369956     -0.460100      0.771792
