16
Extracted from Q-Chem output
C       1.457415     -0.970774      0.020473
C       0.595515      0.075859      0.702535
O       1.162288      1.307911      0.836534
C      -0.743555      0.362943      0.040907
C      -1.647191     -0.598099     -0.636242
O      -1.283551      1.427636      0.537501
H       1.694459     -0.664463     -0.999952
H       0.978740     -1.953135      0.000655
H       2.393732     -1.054537      0.570816
H       0.267816     -0.313732      1.686878
H       0.827799      1.481488     -0.580857
H       0.288116      1.186701     -1.212723
H      -1.093780     -1.241196     -1.316648
H      -2.116619     -1.225275      0.127417
H      -2.433434     -0.068280     -1.170895
H      -0.464491      1.875866      0.932833
