13
Extracted from Q-Chem output
C      -2.293899      0.430318      0.075271
O      -1.376511     -0.645705      0.170505
C      -0.083426     -0.326015      0.036499
N       0.339911      0.904851     -0.161706
N       1.678285      0.779957     -0.239265
C       2.093495     -0.491033     -0.094126
C       0.974236     -1.259221      0.089670
H      -3.282630     -0.006496      0.200099
H      -2.108472      1.171842      0.855526
H      -2.220958      0.921149     -0.897895
H       2.234742      1.599305     -0.388358
H       3.137813     -0.756218     -0.132359
H       0.907414     -2.322732      0.238313
