15
Extracted from Q-Chem output
C      -1.668403      1.007135     -0.728096
C      -0.348491      0.646689     -0.070535
O      -0.512289      0.844283      1.314341
C       0.039433     -0.790097     -0.417894
O       1.463441     -1.030120     -0.475302
C       2.152294     -1.046919      0.651398
O       1.731773     -0.805656      1.750982
H      -2.446411      0.299044     -0.433960
H      -1.582052      1.007674     -1.815971
H      -1.976500      1.999507     -0.400922
H       0.440629      1.305733     -0.463463
H       0.216714      0.405368      1.770512
H      -0.292099     -1.043958     -1.422897
H      -0.412965     -1.480009      0.298415
H       3.194925     -1.318677      0.443393
