15
Extracted from Q-Chem output
C      -1.710837     -0.551499      0.009027
C      -0.473664      0.325645     -0.038624
C       0.608696     -0.003308      0.989212
C       1.922014      0.164329      0.201631
C       1.582730      0.061867     -1.269374
N       0.281665      0.154218     -1.299081
H      -2.227296     -0.429391      0.962546
H      -2.417266     -0.294394     -0.783797
H      -1.438788     -1.603596     -0.100659
H      -0.773019      1.377570      0.036724
H      -0.217784      0.156296     -2.176265
H       0.543839      0.631628      1.872395
H       0.495532     -1.039517      1.318443
H       2.695555     -0.552531      0.477609
H       2.367230      1.156486      0.340640
