14
Extracted from Q-Chem output
O       1.408065     -1.311063     -0.289593
C       1.272614     -0.020717     -0.832961
C       0.753685      0.367321      0.485069
C      -1.190921      1.252406      0.163260
C      -0.621234      0.170966      0.804422
O      -0.906553     -1.609267      0.217151
H       0.322458     -1.646625     -0.136837
H       0.561827      0.049765     -1.660494
H       2.234009      0.406049     -1.113596
H       1.459450      0.623687      1.265103
H      -0.887747      1.541437     -0.833238
H      -2.003987      1.805407      0.615897
H      -0.890083     -0.028991      1.831545
H      -1.518902     -1.557578     -0.520184
