15
smiles: [C:4]1([H:12])([H:13])[C:5]([H:14])([H:15])[C:6]1=[O:7].[O:1]([C:2](=[C:3]([H:9])[H:11])[H:10])[H:8]
O        1.93117500       0.14242600      -0.26353300
C        1.64746800      -0.68242300       0.77890500
C        2.04354300      -0.42721600       2.01433200
C       -1.31323700       0.90206800      -0.48636900
C       -2.38692900       0.14515900      -1.33165400
C       -0.95267100      -0.10496500      -1.48562900
O       -0.09006300      -0.70913100      -2.03997400
H        1.55961500      -0.21407200      -1.07018700
H        1.79393800      -1.11476200       2.80872300
H        1.07077300      -1.57087100       0.53453300
H        2.61753900       0.45957300       2.24982200
H       -1.22965800       0.64422400       0.56304600
H       -1.13885500       1.94715500      -0.71415400
H       -2.90085300       0.70450100      -2.10475500
H       -2.99370500      -0.59563600      -0.82443700
