14
Extracted from Q-Chem output
O       1.768630      1.458099     -1.736043
C       1.182279      0.750427     -0.993426
C       1.638566     -0.166751      0.219576
N       0.209344     -0.105180      0.611364
C      -1.190531     -0.674910      0.840236
C      -1.572735      0.601893      0.018017
C      -0.261346      0.251911     -0.738886
H       1.986376     -1.147985     -0.106139
H       2.320088      0.265243      0.949858
H      -1.471040     -0.744128      1.889520
H      -1.268688     -1.643435      0.332601
H      -0.323347      0.928192      0.904864
H      -2.532022      0.645686     -0.496208
H      -0.334885     -0.663944     -1.354628
