15
smiles: [C:1]([C:2]([C:4](=[O:5])[C:6](=[O:7])[H:15])([H:11])[H:13])([H:8])([H:9])[H:10].[O:3]([H:12])[H:14]
C       -0.64830300       0.60591500      -1.28890000
C       -0.86316700       0.23327900       0.18089100
O       -0.21088800      -2.77770500      -0.57932200
C        0.45081300       0.17884000       0.91500200
O        0.96591200      -0.82595300       1.31700300
C        1.15860600       1.54005300       1.12657400
O        2.31927400       1.62536600       1.38870300
H       -1.60386400       0.66583600      -1.80940800
H       -0.15267800       1.57369100      -1.39542600
H       -0.03394400      -0.14198900      -1.79174700
H       -1.34435200      -0.73991200       0.27220300
H        0.15093100      -3.65936800      -0.67794900
H       -1.50507500       0.97913800       0.66125500
H        0.37024400      -2.33166100       0.03803000
H        0.51682600       2.44071800       1.02237100
