11
Extracted from Q-Chem output
C      -0.579345     -0.134722     -0.789112
N      -0.994540      1.114449     -0.152822
C      -0.023552      1.456746      0.574768
O       1.069611      0.666048      0.637399
C       0.731855     -0.533859     -0.089733
O       0.637366     -1.614811      0.767611
H      -1.340411     -0.908938     -0.673346
H      -0.143327     -1.518899      1.320516
H      -0.435526      0.031458     -1.858452
H       0.024530      2.356345      1.176557
H       1.559626     -0.752768     -0.760765
