14
Extracted from Q-Chem output
C      -2.104297      0.592272      0.701969
C      -1.155825     -0.136733     -0.153103
C      -0.768924     -1.148893     -0.835678
O       1.279485     -0.842778      1.300369
C       1.381800     -0.221823      0.261792
N       2.540088      0.388108     -0.108044
C       0.240705     -0.048000     -0.700012
H      -1.667331      0.720502      1.694219
H      -3.045278      0.051422      0.796842
H      -2.302709      1.585701      0.295058
H      -0.913233     -2.139896     -1.225144
H       3.346296      0.284456      0.480899
H       2.633790      0.849389     -0.992392
H       0.446499      0.603170     -1.552536
