14
Extracted from Q-Chem output
C      -2.192711      0.682731      0.290811
C      -1.041842     -0.242724      0.041394
C      -1.162991     -1.561827     -0.325475
O       1.633342     -1.718874      0.036097
C       1.501505     -0.517702     -0.119377
N       2.594043      0.303938     -0.157486
C       0.226377      0.218100     -0.256185
H      -2.319089      0.812377      1.368281
H      -3.115697      0.273162     -0.116842
H      -2.005719      1.668499     -0.138941
H      -0.411974     -2.264171      0.049128
H       3.481147     -0.114251      0.059419
H       2.507513      1.299953     -0.086020
H       0.303916      1.232594     -0.640507
