12
Extracted from Q-Chem output
N       0.518579      1.112851      0.972298
C       0.265423      0.082616      0.029678
C      -1.021403      0.123958     -0.735315
C      -0.815435     -0.907700      0.336496
C       2.342188     -0.811787     -1.220018
N       1.391482     -0.423383     -0.671000
H       1.141794      0.801896      1.704986
H       0.915554      1.931282      0.531180
H      -0.996947     -0.202717     -1.765444
H      -1.673133      0.958144     -0.517082
H      -1.327789     -0.770981      1.278384
H      -0.650249     -1.931255      0.030921
