8
Extracted from Q-Chem output
O      -0.468180      2.177908     -0.039280
C      -0.108470      1.027783     -0.017643
N       1.151974      0.472959      0.001936
N       0.927600     -0.818488      0.020697
N      -0.280304     -1.236414      0.017757
N      -0.954113     -0.105315     -0.006475
H       1.684205     -1.485466      0.037976
H      -1.959219     -0.119878     -0.014579
