10
Extracted from Q-Chem output
C       1.018417      0.604050     -0.298840
C       1.247488     -0.813525     -0.134711
N       0.057181     -1.360112     -0.006948
C      -1.005693     -0.548501      0.019252
C      -0.747547      0.853458      0.010231
N       0.171393      1.156014     -1.093378
H       0.466169      0.797798      0.850443
H       2.149416     -1.319786      0.174594
H      -1.983144     -0.978967      0.189014
H      -1.417005      1.630774      0.369314
