13
Extracted from Q-Chem output
C       1.782123      0.607420      0.460808
O       0.382480      0.514744      0.423072
C      -0.079938     -0.598018     -0.307157
C      -1.586114     -0.501966     -0.374586
O      -2.004750      0.664820     -1.044504
H       2.038685      1.488728      1.047041
H       2.227836     -0.276880      0.934097
H       2.203905      0.711854     -0.547096
H       0.342405     -0.585084     -1.322062
H       0.223620     -1.535351      0.181631
H      -1.983722     -1.352980     -0.930576
H      -1.995430     -0.539762      0.643404
H      -1.551102      1.402475     -0.627947
