16
Extracted from Q-Chem output
C       1.840224      0.205888     -0.059692
N       0.641672     -0.589609     -0.369875
C      -0.272654     -1.105805      0.672479
C      -1.323159     -0.068573      0.912285
C      -1.075192      1.074633     -0.038537
C      -0.614951      0.001943     -1.005925
C      -1.501837     -1.101059     -0.241748
H       1.560646      1.017299      0.605891
H       2.259076      0.609000     -0.982065
H       2.574889     -0.429356      0.434483
H       0.095506     -1.836589      1.381976
H      -1.860831     -0.038594      1.851443
H      -0.416007      1.918673      0.211611
H      -2.024550      1.465751     -0.405264
H      -0.502099      0.165826     -2.076151
H       0.884681     -1.384497     -0.956689
