16
Extracted from Q-Chem output
C       2.355944      0.007358     -0.097053
C       0.962363      0.420735     -0.523928
C      -0.096810     -0.600476      0.208132
O       0.044434     -0.682080      1.478672
C      -1.338194     -0.185880     -0.375289
C      -2.406808      0.238856      0.508762
H       3.082198      0.760664     -0.410298
H       2.389787     -0.094673      0.986739
H       2.639560     -0.948776     -0.541799
H       0.846622      0.399140     -1.609262
H       0.728609      1.422235     -0.160048
H       0.154754     -1.522783     -0.405197
H      -1.444351     -0.184562     -1.456449
H      -1.962241      0.951407      1.221161
H      -3.298684      0.628653      0.027102
H      -2.636369     -0.607851      1.172475
