16
Extracted from Q-Chem output
C      -1.128407      0.131361     -0.940247
C      -0.339897     -0.063874      0.382727
C      -0.461386     -1.510074      0.881193
O       0.128732     -2.413529     -0.015281
C       1.033130      0.245082     -0.041195
C       1.396715      1.654864      0.096371
H      -1.057321      1.153338     -1.313940
H      -2.177582     -0.088141     -0.739702
H      -0.777438     -0.554366     -1.709967
H      -0.752655      0.635660      1.126562
H      -1.514032     -1.786428      0.988179
H       0.001142     -1.580884      1.875601
H       0.945282     -1.982615     -0.308633
H       2.151280      1.992732     -0.614081
H       1.923059      1.601966      1.068295
H       0.582990      2.384687      0.208769
