14
smiles: [C:1]([C:2](=[C:3]=[C:4]([H:12])[H:13])[H:11])([H:8])([H:9])[H:10].[N:5](=[C:6]=[O:7])[H:14]
C       -2.00442800       0.32686400       0.27265600
C       -0.82214200       0.84730300      -0.49420500
C        0.30382500       1.21462500       0.04372000
C        1.42760100       1.58000900       0.58766100
N        1.90550400      -1.90358800      -0.13115400
C        0.85875100      -2.21701200      -0.64554100
O       -0.18226800      -2.38920500      -1.12702600
H       -2.87807300       0.96346400       0.11442000
H       -1.79417200       0.28976100       1.34089100
H       -2.26953700      -0.67884200      -0.06176800
H       -0.91681500       0.92301900      -1.57463000
H        1.58888600       2.60298100       0.90832100
H        2.23523100       0.87187000       0.73427400
H        2.66966100      -2.52439700       0.06064700
