14
Extracted from Q-Chem output
C      -1.718914      0.106947      0.277114
C      -0.403953      0.171741     -0.487756
C       0.613169      0.993825      0.114012
C       1.699710      1.242051      0.630622
N       1.514651     -1.314903     -0.099792
C       0.304307     -1.297716     -0.563553
O      -0.465143     -2.123360     -1.058234
H      -2.274692      1.044812      0.229703
H      -1.545388     -0.154605      1.321987
H      -2.309960     -0.685397     -0.178584
H      -0.560814      0.480636     -1.523178
H       0.692989      2.182727      0.450467
H       2.618374      1.560864      1.077368
H       1.893969     -2.251722     -0.180617
