14
Extracted from Q-Chem output
O      -0.835050      1.738479     -0.391329
C      -0.748477      0.638664      0.471964
C      -1.364584     -0.720635      0.097565
C      -0.194538     -1.455270      0.690989
C       1.548440     -0.096496     -0.519492
C       0.575708     -0.145496      0.658050
H      -0.524047      1.482408     -1.261972
H      -1.127301      0.991818      1.430656
H      -1.229702     -0.904268     -0.981576
H      -2.385174     -1.015405      0.344355
H       1.059897     -0.318315     -1.471896
H       1.996031      0.895712     -0.588939
H       2.343010     -0.830131     -0.383982
H       1.138356      0.038400      1.578275
