11
Extracted from Q-Chem output
C      -1.440247     -0.021568      0.612838
C      -0.273436      0.730357      0.270757
C       1.208433     -0.422919     -0.618816
H      -2.253447     -0.105435     -0.091255
H      -1.541016     -0.435690      1.603790
H      -0.192858     -0.503190     -0.003540
H       0.384028      1.052435      1.068044
H      -0.307840      1.395960     -0.582700
H       1.440592     -1.364197     -0.110800
H       2.033471      0.277204     -0.503582
H       0.974553     -0.591058     -1.670471
