16
Extracted from Q-Chem output
C      -1.360148      0.255895      0.506214
C      -0.397886      0.737849     -0.455167
C       1.102931      0.772830     -0.241576
C       1.630003      0.110908      1.023437
C      -0.535045     -1.806709     -0.632333
C      -1.192834     -0.580950     -0.816520
H      -1.007115     -0.247375      1.394375
H      -2.332938      0.722530      0.582673
H      -0.756130      1.521306     -1.114147
H       1.590545      0.339804     -1.118059
H       1.381803      1.831716     -0.232157
H       1.204169      0.570799      1.918584
H       2.714002      0.225708      1.080237
H       1.391771     -0.952591      1.030127
H      -0.960690     -2.538698     -1.342578
H      -1.985914     -0.401054     -1.541020
