13
Extracted from Q-Chem output
O       1.619133      2.126886     -0.121044
C       0.805478      1.247755     -0.256280
N       0.888551      0.027363      0.603489
C       0.429252     -1.051542     -0.269407
C      -0.782339     -0.224664     -0.698633
C      -1.254752      0.144932      0.652512
N      -0.252215      1.089843     -1.053871
H       1.762365     -0.065438      1.106501
H       0.151824     -1.947854      0.289763
H       1.133847     -1.299103     -1.068772
H      -1.491270     -0.633937     -1.414640
H      -1.804488      1.073352      0.753784
H      -1.191901     -0.494273      1.524880
