19
Extracted from Q-Chem output
C      -2.457819     -0.711287      0.421067
C      -1.152281     -0.631338     -0.299063
C      -0.031135      0.085993      0.238754
C       1.295026     -0.028395     -0.311818
C       2.488124      0.498836      0.414308
C      -0.314403      1.476297     -0.437700
O      -0.485084      2.480965      0.196412
H      -2.991010     -1.618025      0.129090
H      -2.320500     -0.732118      1.502825
H      -3.116622      0.131970      0.182523
H       0.096036     -2.083463     -0.333732
H      -1.184481     -0.748656     -1.379733
H      -0.060559      0.229134      1.316660
H       1.368851     -0.106532     -1.393595
H       0.884454     -1.881398     -0.344881
H       3.398913      0.051874      0.014210
H       2.437542      0.277749      1.481338
H       2.588442      1.585586      0.304818
H      -0.361734      1.427424     -1.536050
