13
Extracted from Q-Chem output
C       2.150876     -0.120971     -0.524217
C       0.727236     -0.455957     -0.660141
N      -0.057550     -1.402948     -0.843504
C      -0.650762     -0.019584     -0.604730
C      -1.281488      0.238744      0.718353
O      -2.593449      0.582826      0.694727
N      -0.617705      0.150945      1.784775
H       2.768352     -1.005298     -0.674061
H       2.314399      0.280266      0.476857
H       2.423979      0.649522     -1.246456
H      -1.120456      0.449483     -1.468003
H      -2.947763      0.476823     -0.191882
H      -1.205486      0.317442      2.597539
