17
Extracted from Q-Chem output
C      -1.375487     -1.092148     -0.202000
C       0.015020     -0.570738     -0.592969
C      -0.004391      0.858240     -1.164462
C      -0.490027      1.911298     -0.178534
C       0.972625     -0.739702      0.486658
C       1.792090     -0.895079      1.392939
C       2.743417     -0.926737      2.341927
H      -2.072705     -0.954646     -1.030466
H      -1.333426     -2.151484      0.049779
H      -1.766879     -0.557268      0.663560
H       0.402331     -1.235001     -1.379061
H      -0.638006      0.859973     -2.056645
H      -0.420649      2.908009     -0.615951
H      -1.531586      1.751826      0.107057
H       0.116596      1.904400      0.730327
H       1.007272      1.105030     -1.494509
H       2.690868     -1.840444      2.948200
