11
Extracted from Q-Chem output
N      -1.738521     -0.518331     -0.016168
C      -0.432128     -0.103243      0.176669
O       0.365659     -0.923360      1.030992
N      -0.088327      1.272451      0.300429
C       0.794331      0.423568     -0.478245
N       1.592898     -0.378221      0.446885
H      -1.841548     -1.312727     -0.626261
H      -2.354532      0.240042     -0.256860
H       0.290608      1.521451      1.210239
H       1.141349      0.715331     -1.459780
H       1.984626     -1.169634     -0.059096
