10
Extracted from Q-Chem output
N       1.825983     -0.177655     -0.291184
C       0.499389     -0.044778     -0.022125
N      -0.280508     -1.097256      0.252978
N      -1.618339     -0.501212      0.386472
C      -1.399934      0.792720      0.167680
N      -0.133284      1.134027     -0.020441
H       2.369108      0.663930     -0.220259
H       2.267460     -1.020855      0.028348
H      -1.268929     -1.281422     -0.474757
H      -2.214926      1.502999      0.181397
