17
Extracted from Q-Chem output
C       1.686667      0.065675     -0.076926
C       0.175273     -0.110383      0.108174
C      -0.101975     -1.062743      1.278875
C      -1.597488      0.450377     -1.555037
C      -0.553225     -0.546261     -1.181894
C      -1.430387      1.502116     -0.573420
C      -0.485736      1.210902      0.343323
H       1.906464      0.751546     -0.897674
H       2.154076      0.458681      0.829032
H       2.152403     -0.895576     -0.303772
H       0.314825     -0.676503      2.211926
H       0.353773     -2.036365      1.086923
H      -1.174336     -1.211352      1.420380
H       0.123325     -0.616091     -2.044140
H      -1.005818     -1.541517     -1.116329
H      -2.019139      2.412083     -0.569252
H      -0.208891      1.843771      1.184506
