15
Extracted from Q-Chem output
C       2.945382     -0.784818     -1.712728
C       1.762020     -0.601410     -0.881002
C       0.789717     -0.448969     -0.193120
C      -0.359118     -0.261280      0.643590
C      -1.593223      0.185649      0.108525
C      -2.558612      0.700934      1.079312
O      -1.686501      1.812973      0.991736
H       3.561874      0.115679     -1.723384
H       3.554693     -1.608418     -1.336871
H       2.666283     -1.017276     -2.741894
H      -0.590912      1.019955      1.090847
H      -0.424113     -0.880741      1.535792
H      -1.728932      0.426198     -0.938249
H      -3.561358      0.920141      0.716418
H      -2.581313      0.201360      2.050916
