13
Extracted from Q-Chem output
O       1.267904     -0.476461      1.448598
C       0.378875     -0.137574      0.449639
C      -0.586375     -1.012246     -0.369615
N      -0.900823      0.394787     -0.848262
C      -0.818023      0.790299      0.621125
C       0.601794      0.613580     -0.874520
H       1.933278     -1.069123      1.092401
H      -0.171560     -1.653359     -1.149503
H      -1.414665     -1.491548      0.153207
H      -0.624578      1.851880      0.777818
H      -1.659660      0.436417      1.217074
H       1.101600      0.089689     -1.691304
H       0.892236      1.663659     -0.826659
