15
Extracted from Q-Chem output
C      -2.222434      0.093156     -0.811834
C      -1.122659     -0.461753      0.082931
C       0.242407      0.113985     -0.258824
C       1.358602     -0.412579      0.599148
O       1.239671     -1.192463      1.509660
C       2.744649      0.067298      0.264398
O       3.087067      1.256728      0.643139
H      -2.300876      1.179120     -0.717860
H      -3.192200     -0.331881     -0.549376
H      -2.033225     -0.135288     -1.863596
H      -1.079872     -1.550347      0.000155
H      -1.345307     -0.251373      1.131228
H       0.509801     -0.082167     -1.304618
H       0.255031      1.207285     -0.160048
H       3.876407      0.563923      0.115592
