10
Extracted from Q-Chem output
O      -2.658961      0.160200      0.102097
C      -2.025687      0.063177     -1.014300
C      -0.549768      0.223113     -0.777811
N      -0.088161     -0.170443      0.338683
C       1.299057     -0.211420      0.527314
N       2.077437     -0.680874     -0.346459
H      -2.031383      0.270408      0.858098
H       0.086815      0.576697     -1.590016
H       1.601006      0.156283      1.510967
H       3.039971     -0.658393     -0.021807
