15
Extracted from Q-Chem output
C      -1.220658      0.706506      0.367891
O      -1.379122      0.952712     -1.073080
C      -0.841040      0.075266     -1.851961
C      -0.234959     -0.980122     -0.963349
C      -0.194123     -0.411745      0.464726
C       1.190990      0.098820      0.854029
O       1.631931      1.176136      0.055786
H      -2.205586      0.434896      0.747445
H      -0.898101      1.648966      0.806743
H       1.800667      0.871581     -0.838755
H       0.728677     -1.319733     -1.350898
H      -0.907672     -1.841284     -1.056578
H      -0.500364     -1.158755      1.199244
H       1.169744      0.482846      1.876228
H       1.906761     -0.732910      0.830846
