15
Extracted from Q-Chem output
C      -1.284173      0.600936      0.383768
O      -0.945949      1.139321     -0.938770
C      -0.032513      0.378499     -1.490072
C      -0.111620     -0.975543     -0.864873
C      -0.217372     -0.473380      0.577944
C       1.168998      0.138613      0.825638
O       1.583054      0.927088     -0.257067
H      -2.303032      0.209129      0.359767
H      -1.219335      1.435245      1.081879
H       1.123901      0.827289     -1.429848
H       0.757198     -1.596679     -1.068297
H      -1.021105     -1.478130     -1.207811
H      -0.491392     -1.217954      1.325738
H       1.145443      0.771845      1.722646
H       1.877060     -0.681732      1.014145
