13
Extracted from Q-Chem output
C      -1.481435     -0.031602     -0.197863
C      -0.136993     -0.056097      0.504082
N       0.838874     -0.876723     -0.210320
C       1.589154     -0.366296     -1.140431
C       0.444637      1.337759      0.708694
O      -0.230776      2.325009      0.756664
H      -1.903646     -1.035566     -0.265634
H      -1.358638      0.370555     -1.204169
H      -2.173954      0.607465      0.347744
H      -0.248798     -0.477851      1.512370
H       0.843202     -1.859431      0.051599
H       2.209305     -1.181762     -1.549233
H       1.537000      1.366482      0.872480
