13
Extracted from Q-Chem output
C      -1.654124     -0.077452     -0.098691
C      -0.278611     -0.211432      0.497387
N       0.683757     -1.025836     -0.274384
C       1.458204     -0.006963     -0.619708
C       0.673417      1.026888      0.147266
O       0.367625      2.215952     -0.023774
H      -2.248567     -0.985041      0.020284
H      -1.586556      0.171918     -1.158185
H      -2.162359      0.748388      0.400936
H      -0.303015     -0.519770      1.546055
H       0.990921     -1.964617     -0.064284
H       2.399159     -0.051750     -1.160444
H       1.600502      0.766652      0.895316
