14
Extracted from Q-Chem output
O      -0.573841     -0.046172     -1.124299
C      -0.989558     -0.368382      0.209576
C       0.151607     -1.285594      0.659299
N       0.985288     -0.028986      0.538935
C      -0.251845      0.687781      1.032236
C       0.830084      0.181292     -0.904653
O       1.185365      1.440831     -1.335963
H       0.376359      1.943105     -1.460375
H      -2.054143     -0.586973      0.232880
H       0.112344     -1.616274      1.694818
H       0.437195     -2.100979     -0.005983
H      -0.338481      0.576045      2.110384
H      -0.337490      1.734865      0.743935
H       1.427749     -0.554041     -1.447603
