15
Extracted from Q-Chem output
C       1.561882      0.885059      0.504504
C       0.925038     -0.224893     -0.320662
N      -0.479555     -0.429528     -0.034830
C      -0.914211     -1.548767      0.590896
O      -2.061800     -1.791266      0.889286
C      -1.424268      0.595623     -0.417188
H       1.470160      0.673742      1.571377
H       2.621886      0.975616      0.261472
H       1.094050      1.851061      0.307877
H       1.440859     -1.169225     -0.133768
H       1.039831     -0.010155     -1.388887
H      -0.089080     -2.251334      0.808146
H      -2.428258      0.192344     -0.306931
H      -1.259803      0.884426     -1.458426
H      -1.334574      1.485114      0.211580
