15
Extracted from Q-Chem output
C       1.801295      0.888716      0.510045
C       1.251367     -0.287253     -0.285142
N      -0.176894     -0.422567     -0.119610
C      -0.779494     -1.387444      0.469299
O      -2.033396     -1.323172      0.555840
C      -2.091365      0.478619     -0.356818
H       1.640113      0.738428      1.579134
H       2.871664      1.013947      0.335058
H       1.298106      1.813330      0.221261
H       1.757387     -1.212725      0.015889
H       1.469297     -0.145032     -1.348400
H      -0.252105     -2.247593      0.894183
H      -3.037800      0.063549     -0.673987
H      -1.566024      0.987108     -1.150826
H      -2.130153      1.028320      0.571778
