20
smiles: [C:1](=[C:2]([C:3]([C:4]([C:5]([H:15])([H:16])[H:17])([C:6]([H:18])([H:19])[H:20])[H:14])([H:12])[H:13])[H:11])([H:7])[H:9].[H:8][H:10]
C        2.46306900       0.66913000      -0.11594500
C        1.53829900      -0.03337400       0.51995700
C        0.22255000       0.49846500       0.99660100
C       -0.99174700      -0.21351700       0.38249800
C       -2.27986000       0.26863200       1.04173000
C       -1.04727900      -0.02285100      -1.12969600
H        2.31752200       1.72142500      -0.33876800
H        2.20739800      -2.31977700      -2.47250900
H        3.39674500       0.22346100      -0.43708000
H        2.06838500      -1.78003000      -1.97883700
H        1.72452200      -1.08770300       0.71921600
H        0.15913300       1.57109500       0.78213500
H        0.17184600       0.39178500       2.08629200
H       -0.88566900      -1.28629600       0.58731900
H       -3.15135600      -0.24593400       0.63157400
H       -2.26547700       0.09795500       2.12060400
H       -2.42123600       1.34084200       0.87562100
H       -1.90392700      -0.54576500      -1.56022200
H       -1.14547600       1.03820800      -1.37935400
H       -0.14349500      -0.39441900      -1.61507600
