11
Extracted from Q-Chem output
O       0.522001      1.536770     -0.839597
C       0.095320      0.688436      0.187679
C      -1.310287      0.084273     -0.014483
N      -0.713384     -1.287025      0.030253
C       0.447938     -0.771345      0.119907
O       1.637854     -1.360191      0.167576
H       1.440219      1.771360     -0.691514
H       0.250918      1.127269      1.179248
H      -2.039728      0.268239      0.774858
H      -1.735623      0.321317     -0.988973
H       1.504901     -2.312672      0.084020
