14
smiles: [C:1]1([H:7])([H:8])[C@@:2]2([H:9])[C:3]([H:10])([H:11])[C:4]([H:12])=[C:5]1[O:6]2.[H:13][H:14]
C        0.76821900      -0.91962300      -0.09238000
C       -0.50034500      -0.02306000      -0.39517900
C       -1.31776500       0.07732400       0.95248800
C       -0.05734200       0.15181700       1.80740700
C        0.89035900       0.30829400       0.83278600
O        0.30349400       1.14241600      -0.17650100
H        0.62733100      -1.89971000       0.35916100
H        1.45432500      -0.93640200      -0.93769100
H       -1.00493300      -0.04269600      -1.36609900
H       -2.00437800       0.92272900       0.89824200
H       -1.87915300      -0.81239700       1.25293800
H        0.09650600      -0.49439900       2.66080200
H        1.38476500       1.11861700      -3.33910500
H        1.26108000       1.25639900      -2.61785100
