8
Extracted from Q-Chem output
O       2.072441      0.687026     -1.067192
C       1.113745      0.684931     -0.385040
O      -0.281021     -1.575499      1.220028
C      -0.739069     -0.963634      0.301689
C      -0.287719      0.408172     -0.088992
O       0.715528      1.041489      0.815451
H      -1.536238     -1.375104     -0.347426
H      -1.050145      1.093638     -0.448425
