19
Extracted from Q-Chem output
C       3.265169      0.699610     -0.330342
C       1.918604      0.119292     -0.623686
O      -0.724422     -1.231206      1.370435
C       0.761844      0.672614     -0.293464
C      -0.585541      0.090082     -0.586895
C      -1.406039     -0.207185      0.662623
C      -2.827063     -0.628305      0.322127
H       3.835868      0.855240     -1.249821
H       3.853364      0.025067      0.297556
H       3.183001      1.657658      0.185358
H       1.906791     -0.837146     -1.142973
H      -1.207059     -1.420976      2.176565
H       0.767037      1.623982      0.238096
H      -0.480380     -0.837759     -1.156938
H      -1.160308      0.787305     -1.206132
H      -1.440496      0.704036      1.278970
H      -2.816349     -1.523332     -0.303576
H      -3.353899      0.165639     -0.211297
H      -3.396366     -0.853682      1.227646
