19
Extracted from Q-Chem output
C       2.617507      0.138427      0.282782
C       1.207676     -0.083951     -0.221213
O       0.321929     -0.535637      0.983537
C       0.535249      1.060677     -0.776200
C      -0.936010      0.810829     -1.046429
C      -1.380409      0.275624      0.242916
C      -2.207931     -0.958985      0.368426
H       3.287136      0.333170     -0.555320
H       2.993351     -0.732028      0.823173
H       2.642806      0.997200      0.954994
H       1.156815     -0.972370     -0.868564
H       0.392137     -1.491955      1.138748
H       0.777744      2.020474     -0.325508
H      -1.135403      0.120243     -1.872790
H      -1.433842      1.760971     -1.253189
H      -1.446135      0.992891      1.050796
H      -1.875785     -1.740308     -0.315089
H      -3.227346     -0.684047      0.068625
H      -2.251910     -1.353204      1.382316
