11
Extracted from Q-Chem output
C       1.287714      0.178666      0.104697
N      -0.045169      0.682787     -0.170361
C      -1.175659      0.064001      0.502338
C      -1.119954     -0.479022     -0.875545
H       1.267102     -0.849509      0.481241
H       1.767573      0.821401      0.845447
H       1.882573      0.201121     -0.808738
H      -0.855992     -0.572020      1.323866
H      -1.968832      0.752415      0.780816
H      -0.509188     -1.390097     -0.883576
H      -0.421872      0.685585     -1.235265
