9
Extracted from Q-Chem output
N      -1.147415     -0.698112      0.175528
C      -1.156231      0.604908      0.180490
C       0.304080      0.903972     -0.042627
C       0.937573     -0.448392     -0.142910
N       0.086843     -1.384105     -0.015064
H      -1.951179     -1.292851      0.295615
H       0.437189      1.507322     -0.945779
H       0.703248      1.504929      0.779985
H       1.981587     -0.681716     -0.303646
