13
Extracted from Q-Chem output
C      -1.939296      0.309292     -0.168286
C      -0.848659     -0.555349      0.473911
C       0.497265      0.074554      0.470118
C       2.593172      0.030439     -0.598671
O       1.376470     -0.366513     -0.359035
H      -2.912428     -0.183644     -0.114130
H      -2.022702      1.273002      0.338603
H      -1.712304      0.503292     -1.218105
H      -0.777619     -1.512246     -0.049002
H      -1.138506     -0.785800      1.505186
H       0.766004      0.930246      1.082793
H       3.122766     -0.543833     -1.336792
H       2.996829      0.868683     -0.048226
