15
Extracted from Q-Chem output
C      -1.458239     -0.370199     -0.501702
O      -1.034301     -1.638246      0.064852
C       0.152937     -1.563308      0.623185
C       1.303750     -0.806689      0.290030
C       1.399115      0.474426     -0.146077
C       0.267249      1.410116     -0.052130
C      -1.001675      0.771973      0.309245
H      -1.027102     -0.333166     -1.513136
H      -2.539727     -0.473714     -0.583596
H       0.361305     -2.489260      1.156198
H       2.229192     -1.358384      0.437072
H       2.351502      0.837023     -0.519737
H       0.542853      2.192260      0.668106
H       0.223819      1.948503     -1.018430
H      -1.759683      1.393288      0.769711
