15
Extracted from Q-Chem output
N       1.335975     -0.306155     -1.518591
C       0.749044     -0.781733     -0.134794
O       0.770501     -1.957172      0.060058
C       0.626488      0.369624      0.865288
N      -0.612992      1.052401      0.561168
C      -1.722056      0.102730      0.605956
C      -1.074048      0.356279     -0.696169
H       1.545484     -1.123386     -2.082446
H       2.122240      0.334264     -1.467631
H       0.659108     -0.042757      1.876685
H       1.478693      1.050680      0.746363
H      -1.563665     -0.853932      1.101900
H      -2.673372      0.567284      0.844095
H       0.355703      0.110766     -1.714250
H      -1.654455      1.014163     -1.350449
