11
Extracted from Q-Chem output
N      -2.286603     -0.369859     -0.013538
C      -1.033741      0.040876      0.005779
O      -0.141872     -0.876194     -0.068573
N       0.735969      1.260960      0.192626
C       1.160726     -0.004821     -0.199467
N       2.121766     -0.056542      0.740871
H      -2.530823     -1.348938     -0.089065
H      -3.026969      0.302842      0.052272
H       0.508941      1.184770      1.180619
H       1.400750     -0.109682     -1.257885
H       3.038992     -0.122310      0.304261
