14
Extracted from Q-Chem output
O       0.428205      1.059358      1.418594
C       1.035169      1.307038      0.387046
C       0.521251      0.960309     -0.932235
C      -0.095097     -0.412873     -1.087600
C      -0.215103     -1.272780      0.139511
C      -1.004689     -0.373135      1.035046
N      -0.894176      0.757316     -0.972359
H       1.999325      1.824942      0.467391
H       1.071713      1.374543     -1.774531
H       0.083975     -0.879371     -2.059960
H       0.741548     -1.564147      0.576510
H      -0.780060     -2.197265     -0.039493
H      -0.875170     -0.463478      2.105887
H      -2.002717     -0.114500      0.724230
