15
Extracted from Q-Chem output
C      -2.373360     -0.023313     -0.544614
N      -1.152880     -0.426984      0.137827
C      -0.670508     -0.641690      1.335955
N       0.659496     -0.380841      1.410844
C       1.032782      0.046232      0.214879
C       2.417281      0.491973     -0.082822
C      -0.085335     -0.025665     -0.697760
H      -3.179778     -0.749483     -0.457372
H      -2.665539      0.962799     -0.187786
H      -1.006641      0.615307     -1.332064
H      -1.277689     -0.912490      2.187291
H       2.771646      0.075638     -1.027670
H       2.450517      1.580083     -0.176603
H       3.087727      0.191720      0.719642
H       0.056647     -0.708096     -1.538941
