21
smiles: [C:1]([O:2][C:3]([C:4](=[C:5]([H:14])[H:15])[C:7]([H:19])([H:20])[H:21])([H:11])[H:12])([H:8])([H:9])[H:10].[C:6]([H:13])([H:16])([H:17])[H:18]
C        2.22917800      -1.09233900      -0.74593900
O        1.02734300      -0.66538700      -0.16473100
C        1.10496500       0.64903000       0.33396300
C       -0.18561300       1.01032100       1.01147700
C       -0.82098500       2.13333700       0.70534300
C       -1.82726500      -1.04168500      -1.86055300
C       -0.67103300       0.05016100       2.05507300
H        3.05479200      -1.07348900      -0.02165500
H        2.50683700      -0.46496200      -1.60344900
H        2.08288100      -2.11549600      -1.08952900
H        1.32182600       1.35765000      -0.47675800
H        1.93061200       0.71697900       1.06230100
H       -1.87772900      -0.13801300      -1.25491900
H       -1.72950000       2.42772500       1.21809000
H       -0.45426600       2.80039500      -0.06655500
H       -1.55715000      -1.88689700      -1.22932800
H       -1.07597900      -0.91353600      -2.63839400
H       -2.79759000      -1.22551900      -2.31924400
H       -0.86595400      -0.92654000       1.60893900
H       -1.58297500       0.41040200       2.53044500
H        0.08982800      -0.10045200       2.82638900
