14
smiles: [C:1]([C:2]#[C:3][H:11])([H:8])([H:9])[H:10].[C:4]=[N:5][H:12].[O:6]=[C:7]([H:13])[H:14]
C       -2.65940500      -0.14491300      -0.69361500
C       -1.35351000      -0.77883100      -0.56750200
C       -0.28163800      -1.30174600      -0.46528100
C        3.79066300      -1.49448000       0.25035700
N        3.27863700      -0.45259000       0.19017500
O        1.58151400       1.72358400       0.23807400
C        0.67583000       1.36800900       0.93320000
H       -3.12401100      -0.02226600       0.28565700
H       -2.56769600       0.83932700      -1.15481200
H       -3.32189800      -0.75150600      -1.31239700
H        0.67083800      -1.76789600      -0.37662200
H        2.83829900       0.43951200       0.13905200
H        0.74614000       0.46567400       1.57060900
H       -0.28235400       1.92088500       0.97468100
