14
Extracted from Q-Chem output
C      -2.187869     -0.168958     -0.375895
C      -0.742250     -0.447497     -0.325665
C       0.212040     -1.198556     -0.518703
C       2.112898     -0.447579      0.117324
N       3.251129     -0.681503      0.224555
O       1.221762      1.389045      0.798233
C       0.014700      1.396012      0.563906
H      -2.663938     -0.566379      0.522734
H      -2.401243      0.902159     -0.415044
H      -2.654693     -0.644134     -1.239590
H       0.715827     -2.081396     -0.843367
H       4.212409     -0.557626      0.455671
H      -0.714894      1.217271      1.369942
H      -0.380257      1.898917     -0.333425
