17
Extracted from Q-Chem output
C      -1.739013     -0.519168     -0.044302
C      -1.810568      0.921531     -0.466414
C      -0.485733      0.303396     -0.122133
C       0.787922     -0.868001     -0.980251
C       1.480262     -0.983751      0.223436
C       1.857275      0.357228      0.731146
C       0.435031      0.830002      0.789254
H      -1.935649     -1.284263     -0.786296
H      -2.077767     -0.770959      0.954016
H      -2.000058      1.116171     -1.515754
H      -2.242356      1.654218      0.206431
H       0.263243     -1.724083     -1.388282
H       1.191529     -0.196907     -1.736955
H       1.313897     -1.805315      0.907689
H       2.479074      0.946279      0.043687
H       2.333001      0.366814      1.713328
H       0.148083      1.638562      1.461019
