15
Extracted from Q-Chem output
C       2.217911     -0.279002      0.754412
C       1.333069      0.429858     -0.149317
O       1.156109     -0.494389     -2.192578
C       0.588781     -0.276689     -1.130997
C      -1.803696      1.011144      0.577359
O      -1.204401     -0.265622      0.474319
C      -0.854987     -0.624367     -0.839621
H       1.491972     -0.503517      1.561681
H       2.593366     -1.241753      0.392134
H       3.004264      0.331555      1.195630
H      -1.144682      1.797413      0.194816
H      -1.993628      1.189491      1.634473
H      -2.755070      1.037574      0.034229
H      -1.502771     -0.158239     -1.591054
H      -0.956203     -1.708334     -0.939990
