15
Extracted from Q-Chem output
C       2.215333     -0.285318      0.670319
C       1.009981      0.527883      0.335582
O       0.783379      0.588021     -1.294844
C      -0.017750     -0.021349     -0.532084
C      -1.659453      0.938339      0.220519
O      -2.052910     -0.441817      0.212929
C      -1.161419     -0.968079     -0.730796
H       2.086713     -0.637773      1.697644
H       2.358679     -1.154562      0.020913
H       3.116776      0.327320      0.650966
H      -0.258515      1.141545      0.545257
H      -1.995196      1.396137      1.155033
H      -2.085940      1.482327     -0.629850
H      -1.534622     -0.880012     -1.761022
H      -0.909918     -2.011356     -0.521862
