12
Extracted from Q-Chem output
O       1.562807      1.866340      1.257684
C       0.893692      1.019513      0.680710
C       1.585274     -0.152703      0.129522
C       2.218054     -1.079121     -0.293869
C      -0.517305      1.145694      0.529499
C      -1.284104     -0.864961     -0.680447
N      -1.377712      0.288451     -0.077314
H       2.792780     -1.895769     -0.664035
H      -0.975240      2.031490      0.940449
H      -2.192678     -1.294460     -1.069878
H      -0.330259     -1.352680     -0.776950
H      -2.324039      0.646217     -0.044875
