10
Extracted from Q-Chem output
N       0.291593      0.945470      0.073439
C       1.411773      0.194925      0.328078
C       1.572150     -1.087236      0.590669
C      -1.125705     -0.950119      0.330136
C      -0.947550      0.344558      0.090480
H       0.377046      1.931793     -0.072528
H       2.388832      0.683016      0.322515
H      -0.294556     -1.631239      0.539803
H      -2.112130     -1.389661      0.327596
H      -1.773701      1.014042     -0.113765
