10
Extracted from Q-Chem output
N       0.277989      1.005952      0.070030
C       1.330381      0.142421      0.277704
C       1.221249     -1.180835      0.442691
C      -1.000303     -0.900226      0.327715
C      -0.945652      0.409564      0.081554
H       0.395558      2.001509      0.051770
H       2.338772      0.541695      0.268640
H      -0.145549     -1.466998      0.829570
H      -1.881971     -1.517457      0.239030
H      -1.802725      1.019923     -0.172285
