16
Extracted from Q-Chem output
C       1.956740      0.406089     -0.170836
N       0.552476      0.206940     -0.022124
C      -0.084325     -0.822198      0.791785
C      -1.445870     -0.185066      0.733129
C      -1.058108      1.163018      0.166591
C      -0.309867     -0.170783     -1.259014
C      -1.030401     -1.146595     -0.349733
H       2.436419      0.613444      0.787900
H       2.120142      1.249677     -0.846276
H       2.418506     -0.483429     -0.628208
H       0.364955     -1.338861      1.630391
H      -2.240793     -0.348954      1.447738
H      -0.662450      1.882674      0.883291
H      -1.714101      1.625450     -0.560841
H       0.323801     -0.616775     -2.036339
H      -1.562312     -2.058115     -0.578419
