11
Extracted from Q-Chem output
O       1.381798     -1.138765     -0.066161
C      -0.059533     -0.171205      0.680889
C      -0.139437      1.192868      0.064656
O      -1.014894      0.709577     -0.959653
C      -0.942008     -0.597997     -0.344656
H       2.116854     -0.655448     -0.463805
H       0.134384     -0.470736      1.698906
H      -0.659243      1.891508      0.728759
H       0.775072      1.649453     -0.317514
H      -1.840785     -1.198803     -0.291861
H       0.311296     -1.183348     -0.682351
