10
Extracted from Q-Chem output
O       1.233225      1.346436     -0.332514
C       1.471818      0.137392      0.048686
C       0.376730     -0.868863     -0.098521
O      -0.786521     -0.340509     -0.719038
C      -1.602262      0.368325      0.071762
O      -1.467126      0.524861      1.247405
H       2.280244      1.080444      0.130023
H       0.737295     -1.679457     -0.733583
H       0.157449     -1.272245      0.893757
H      -2.428030      0.768259     -0.529724
