18
Extracted from Q-Chem output
C      -0.970483      1.273125     -0.232216
C      -0.313341     -0.087522     -0.091459
C      -0.875794     -1.137003     -1.023193
C      -0.222448     -0.521550      1.349044
C       1.879214      0.040851     -0.467873
O       2.327010      0.777783      0.580810
H      -0.997541      1.607558     -1.271854
H      -0.435923      2.022640      0.357348
H      -2.000151      1.240258      0.137704
H      -0.840997     -0.808766     -2.064776
H      -0.320841     -2.074061     -0.945606
H      -1.921554     -1.349446     -0.777040
H      -1.215235     -0.488251      1.812983
H       0.156527     -1.540412      1.442548
H       0.431577      0.140802      1.920392
H       1.929155     -1.013770     -0.185381
H       0.757977      0.276715     -0.821963
H       2.487097      1.670366      0.268504
