15
Extracted from Q-Chem output
C       2.189414     -0.026752     -0.173718
C       0.728863     -0.143047      0.025618
C      -0.079942     -1.156608      0.266575
C      -1.516065     -0.710135      0.306344
C      -1.395419      0.756682     -0.083733
O       0.043973      1.078535     -0.083886
C      -1.019785      1.082507     -1.478947
H       2.393906      0.341417     -1.181344
H       2.663538     -0.998559     -0.049251
H       2.624478      0.676255      0.538984
H       0.247798     -2.178181      0.385716
H      -2.129722     -1.245798     -0.420852
H      -1.962010     -0.842487      1.296004
H      -1.919989      1.462465      0.559370
H      -1.113516      2.176466     -1.568583
