14
Extracted from Q-Chem output
C       1.384520      0.963519     -0.843408
C       0.760702     -0.858954      0.725021
O       0.291009     -0.164436      1.815134
C      -0.657783     -0.506815      0.781968
C      -1.161315      0.698469      0.154820
O      -2.007773      0.506618     -0.898730
H       1.207034      1.905308     -1.376018
H       1.600490      0.183587     -1.564230
H       2.214760      1.099845     -0.159757
H       1.216538     -1.830707      0.954077
H      -1.340945     -1.335134      0.976312
H       0.265729      0.932895     -0.348698
H      -1.388621      1.531023      0.817032
H      -2.577047      1.269385     -1.007995
