10
Extracted from Q-Chem output
O      -1.894638      0.294611      0.317533
C      -0.593681      0.004625      0.210163
C       0.589358      0.682368      0.555092
C       1.718796     -0.243171      0.228921
N       1.140096     -1.308009     -0.355573
N      -0.207374     -1.147251     -0.296515
H      -2.002437      1.159840      0.718082
H       0.667619      1.587864      1.138726
H       1.393701      0.854096     -0.414583
H      -0.818735     -1.870924     -0.643783
