14
Extracted from Q-Chem output
C       1.352206     -0.368421     -0.638241
C       0.229912     -0.110321      0.342608
C      -1.515104     -1.125263      0.608392
C      -1.243841     -0.118712     -0.335773
O      -1.442818      1.248221      0.014458
C      -0.183416      1.329158      0.679385
H       1.325975     -1.399671     -0.994493
H       2.317756     -0.210556     -0.153272
H       1.288030      0.294944     -1.501837
H      -1.212288     -2.068939      0.120833
H       0.333577     -0.730287      1.240114
H      -1.250721     -0.266750     -1.417673
H      -0.298501      1.522146      1.747709
H       0.461511      2.088745      0.227513
