14
Extracted from Q-Chem output
C       1.378365     -0.411889     -0.628896
C       0.176135     -0.052687      0.197204
C      -1.265058     -1.122962      0.666134
C      -1.255748     -0.072349     -0.335709
O      -1.534074      1.251055      0.129452
C      -0.211627      1.353629      0.665514
H       1.247691     -1.390397     -1.093143
H       2.285066     -0.447371     -0.023075
H       1.526473      0.322835     -1.422835
H      -0.961464     -2.039421      0.134403
H       0.040485     -0.739914      1.161528
H      -1.474944     -0.246874     -1.384804
H      -0.211712      1.521773      1.744537
H       0.366881      2.132507      0.160646
