16
Extracted from Q-Chem output
C      -2.152030      0.534139     -0.002323
C      -0.663973     -1.113735     -0.443222
C       0.416621     -0.727721      0.456769
C       1.806582     -0.900390     -0.156559
C       1.361592      0.448778      0.227018
O       1.131374      1.341090     -0.814467
H      -1.867670      1.130224     -0.861649
H      -1.769188      0.940268      0.929341
H      -3.234885      0.411503      0.034015
H      -1.857946     -0.653407     -0.071308
H      -0.505077     -0.681594     -1.437210
H       0.334757     -1.049054      1.490388
H       2.553233     -1.409865      0.436208
H       1.840081     -1.110769     -1.217903
H       1.792631      0.888924      1.122871
H       0.470971      1.976612     -0.531326
