14
Extracted from Q-Chem output
O       1.505588      1.622012     -0.207590
C       1.117548      0.256234     -0.148495
C      -0.373743      0.212956     -0.422661
O      -1.059306      1.065104      0.475975
C      -0.959429     -1.176089     -0.239787
O      -0.838048     -1.629623      1.088710
H       2.364283      1.725840      0.202284
H       1.649362     -0.335687     -0.902618
H       1.316288     -0.167985      0.840510
H      -0.550427      0.537195     -1.458074
H      -0.534522      1.868172      0.552376
H      -2.010254     -1.154333     -0.552949
H      -0.432740     -1.891464     -0.875131
H      -1.194599     -0.932333      1.647448
