15
Extracted from Q-Chem output
O      -2.396695      0.196088      0.867773
C      -1.330296     -0.418125      0.388848
C      -0.868721     -0.290141     -1.059497
C       0.507204      0.173270     -0.639463
C       1.780859     -0.386719     -1.070812
O       1.352635      0.902062     -1.495300
C       0.199834      0.655136      0.761366
H      -1.192013      0.662722      1.128137
H      -1.012243     -1.357855      0.866257
H      -1.424321      0.511046     -1.548374
H      -0.929347     -1.205816     -1.646553
H       2.626058     -0.391559     -0.388031
H       1.796961     -1.148385     -1.845583
H       0.061757      1.744391      0.774111
H       0.851041      0.332508      1.568947
