15
Extracted from Q-Chem output
C      -0.543557      1.165822      1.037347
C      -0.167622     -0.034278      0.210660
C       1.268585     -0.161278     -0.185986
C       1.705396      1.327304     -1.095562
N       1.672013      0.459518     -1.900427
C      -0.881181     -1.327940      0.387013
N      -1.164964     -0.473799     -0.755379
H       0.019165      1.187517      1.973371
H      -0.336003      2.085768      0.489753
H      -1.607552      1.134973      1.268345
H       1.501469     -1.136788     -0.603975
H       1.978420      0.050899      0.607972
H      -1.671791     -1.392753      1.125592
H      -0.329679     -2.249530      0.232544
H      -0.727237     -0.819009     -1.602312
