13
Extracted from Q-Chem output
C      -1.483781     -0.886681     -0.231217
C      -0.288156      0.003339      0.039141
O       0.829744     -0.474779     -0.695133
C       2.038324     -0.269224     -0.165001
O       2.259562      0.235756      0.897051
C      -0.754975      1.493677     -0.766950
C      -0.259613      1.773885      0.347285
H      -1.671257     -0.951936     -1.299904
H      -2.362736     -0.465878      0.253870
H      -1.293745     -1.883053      0.174193
H      -0.041129     -0.074019      1.103502
H       2.804881     -0.640057     -0.856341
H       0.209378      2.139833      1.237732
