19
Extracted from Q-Chem output
C       2.731776     -1.325464      0.347632
O       1.332470     -1.152082      0.101011
C       0.709946     -0.285967      0.838242
C      -0.734573      2.079696     -0.529493
C      -1.274512      1.166759      0.564709
C      -0.750630     -0.274287      0.476964
C      -1.176721     -1.010232     -0.791592
H       3.036156     -0.654629      1.149465
H       3.262897     -1.101230     -0.576717
H       2.896521     -2.366917      0.621819
H       0.358117      2.107989     -0.505380
H      -1.095151      3.101379     -0.398455
H      -1.041020      1.749603     -1.524232
H      -2.367913      1.149630      0.527478
H      -0.991884      1.568446      1.540428
H      -1.172068     -0.801049      1.349798
H      -2.256390     -0.928123     -0.935333
H      -0.688549     -0.599240     -1.676815
H      -0.920843     -2.068645     -0.743305
