14
Extracted from Q-Chem output
C       1.901633      0.000173      0.087714
N       1.290499     -1.317759      0.104983
C       0.819003     -0.324262     -0.875176
C      -0.511131      0.292728     -0.740788
C      -2.092216      0.110922      0.581303
N      -0.949884      0.824903      0.425429
H       2.926226      0.035260     -0.262542
H       1.678292      0.683754      0.899946
H       0.622478     -1.374010      0.867167
H       1.101710     -0.569364     -1.892618
H      -1.148478      0.379810     -1.607545
H      -2.021550     -0.960436      0.685966
H      -3.051920      0.600836      0.725656
H      -0.578025      1.589621      0.970077
