12
Extracted from Q-Chem output
O       0.769762      2.068295      0.987583
C       0.292420      1.047481      0.534381
C      -0.945967      0.560581      0.104690
C      -0.902453     -0.938462      0.048137
O       0.542271     -1.251612      0.173786
C       1.194219     -0.144564      0.065271
H       0.241042      0.539750     -1.252069
H      -1.880302      1.091041      0.205206
H      -1.399236     -1.470505      0.862742
H      -1.213620     -1.390580     -0.903525
H       1.061860      0.221263     -1.447006
H       2.278239     -0.205967      0.127703
