13
Extracted from Q-Chem output
C      -0.934930     -0.173933     -0.620951
C      -1.375970     -0.732090      0.796084
C       0.044812     -0.952614      0.587502
C       0.454535      0.324265      0.056632
C       1.729794      0.456094     -0.731311
H       0.159762      1.247714      0.571782
H      -1.494501      0.733604     -0.813351
H      -0.906019     -0.832176     -1.478016
H      -2.019294     -1.604036      0.858777
H      -1.752247      0.124252      1.364711
H       2.559208      0.680814     -0.057532
H       1.953299     -0.478671     -1.245235
H       1.668987      1.263841     -1.463876
