13
Extracted from Q-Chem output
C      -1.385430     -0.810531      0.371440
C      -0.259936     -0.089977     -0.329107
C      -0.043425      1.286697     -0.118164
O       1.963006      0.646461      0.684458
C       1.896214     -0.383215     -0.017337
N       0.840854     -0.839684     -0.702777
H      -1.658955     -1.697073     -0.198718
H      -2.266282     -0.180782      0.508192
H      -1.024506     -1.138612      1.347581
H      -0.781449      0.577500     -1.228837
H      -0.739740      1.885378      0.464013
H       0.685974      1.801415     -0.722997
H       2.773727     -1.039380     -0.063449
