17
smiles: [C:1]1([H:8])([H:9])[C:2]([H:10])([H:11])[O:3][C:5]([H:14])=[C:6]([H:15])[C:7]1([H:16])[H:17].[C:4]([H:12])[H:13]
C       -1.27181000      -0.27439300       0.31612000
C       -0.22376700      -1.13194300      -0.37061400
O        1.08039700      -0.57732300      -0.24939300
C        2.05663300      -0.97810000       0.97989300
C        1.14966500       0.75748800      -0.47061600
C        0.11051600       1.58194800      -0.55047000
C       -1.29760800       1.11411700      -0.31809700
H       -1.01924200      -0.19482900       1.37700900
H       -2.24519800      -0.76469700       0.24797500
H       -0.16312900      -2.12819200       0.06659900
H       -0.45824100      -1.23335600      -1.43787400
H        1.33868100      -0.92958600       1.82491400
H        2.10526500      -2.06853700       0.77842500
H        2.17665600       1.08683600      -0.57178700
H        0.30499900       2.62731500      -0.75248100
H       -1.85784700       1.09434300      -1.25926000
H       -1.82351000       1.81699600       0.33319900
