14
Extracted from Q-Chem output
C      -1.391133     -1.136585     -0.970136
C      -1.572995      0.186740     -0.460310
C      -0.086361      0.599724     -0.065917
C       0.848928      0.260145      0.974042
C       1.861658      0.099971     -0.098156
O       0.918196      0.645243     -1.043093
H      -1.125760     -1.288830     -2.006743
H      -1.222188     -1.958895     -0.286737
H      -2.148547      0.275236      0.461948
H      -1.918361      0.924037     -1.183328
H       0.746049      0.042522      2.023568
H       0.112042      1.531751      0.661409
H       2.806263      0.643986     -0.068796
H       2.032579     -0.965696     -0.346773
