13
Extracted from Q-Chem output
C       1.904422      0.080438      0.002150
C       0.410787      0.072028     -0.033303
C      -0.379175     -0.977046     -0.384190
N      -1.697228     -0.566344     -0.236360
C      -1.784471      0.893263      0.152459
C      -0.445241      1.153843      0.337858
H       2.266820      0.209970      1.023855
H       2.321602     -0.846916     -0.390753
H       2.296117      0.909147     -0.590080
H      -0.127181     -1.984170     -0.678389
H      -2.464442     -0.972494     -0.750291
H      -2.128400     -0.270065      0.818268
H      -0.085118      2.101885      0.714835
