14
smiles: [C-:1]([O+:2]=[C:3]([C@@:4]1([H:12])[C:5]([H:13])([H:14])[O:6]1)[H:10])([H:7])[H:8].[H:9][H:11]
C       -2.38659100      -0.23232900       0.48591400
O       -1.21071200      -0.53644200       0.04998000
C       -0.04927900      -0.05604100       0.36460800
C        1.10909700      -0.68314400      -0.25464600
C        2.45732800      -0.14665200      -0.09581800
O        2.08000800      -1.31468700       0.60645200
H       -3.19960400      -0.76586500       0.02594600
H       -2.49698700       0.53175700       1.24360900
H       -1.80043600       1.79068000      -0.70479800
H        0.00963800       0.68280800       1.15559800
H       -1.05841800       1.83674300      -0.74720000
H        0.88470200      -1.25910900      -1.14903300
H        2.60541700       0.73877200       0.51877900
H        3.19084700      -0.28626000      -0.88585200
