14
Extracted from Q-Chem output
C      -2.377187     -0.059642      0.408365
O      -1.224130     -0.595786      0.110475
C      -0.085986      0.032840      0.257487
C       1.100262     -0.674843     -0.226535
C       2.425110     -0.073682     -0.123941
O       2.053858     -1.121975      0.749637
H      -3.224539     -0.676850      0.151197
H      -2.425748      0.647022      1.228329
H      -1.772101      1.378802     -0.679348
H      -0.002093      0.749492      1.068610
H      -0.965768      1.423940     -0.739271
H       0.910475     -1.390345     -1.022034
H       2.526156      0.905010      0.339430
H       3.182972     -0.318559     -0.862729
