15
Extracted from Q-Chem output
O       2.308514      0.720601      1.161869
C       1.045028      0.796243      0.585388
C       0.986594      0.811346     -0.897102
C      -0.940828     -0.731703     -0.027168
O      -1.121524     -1.654372      0.959508
C      -1.934949     -0.207904     -0.738361
C       0.493362     -0.397310     -0.152503
H       2.238930      0.221227      1.978168
H       0.323206      1.409573      1.118963
H       0.271108      1.465830     -1.375624
H       1.929089      0.702251     -1.416140
H      -2.052816     -1.883121      1.012452
H      -2.968854     -0.475759     -0.553904
H      -1.734928      0.497080     -1.530249
H       1.148965     -1.260747     -0.161211
