11
Extracted from Q-Chem output
C       1.747344     -0.420168     -0.434109
N       0.630661      0.074081     -0.737643
C      -0.434914     -0.033010      0.261211
N      -1.042610      1.230890      0.578910
C      -1.460231     -0.953113     -0.270444
N      -2.241162     -1.682277     -0.684385
H       1.941386     -0.933882      0.515704
H       2.570535     -0.342507     -1.140608
H      -0.060438     -0.475917      1.194933
H      -0.356983      1.848741      0.991346
H      -1.400956      1.670548     -0.259321
