12
Extracted from Q-Chem output
C      -1.285136      0.409704      0.515181
C      -0.595427     -0.780964     -0.086579
O      -0.113080     -0.557183     -1.423763
C       1.111424     -0.741528     -0.832763
C       1.795847      0.456701     -0.313670
O       1.999752      0.760831      0.837388
H      -1.567333      0.196887      1.546990
H      -0.640576      1.285992      0.510600
H      -2.186134      0.628709     -0.059257
H      -1.162180     -1.711008     -0.087852
H       0.332282     -1.085733      0.529916
H       2.299873      0.980558     -1.160316
