15
smiles: [C:1](=[C:2]([C:3]([H:11])([H:12])[H:13])[H:10])([H:7])[H:9].[C:4]([O:5][H:8])[N:6]([H:14])[H:15]
C       -1.61530300      -1.14244300       1.03782300
C       -1.57022100      -0.34695100      -0.01957800
C       -1.65963000       1.14515500       0.02311400
C        1.85900200       0.33943100      -0.27478100
O        1.62257800      -0.57678100       0.67670500
N        3.16703400       0.51866300      -0.33885600
H       -1.72424200      -0.74450700       2.04172400
H        0.67351100      -0.70019700       0.71780600
H       -1.54428300      -2.21904300       0.94064100
H       -1.46029000      -0.79305600      -1.00552300
H       -0.76415900       1.60145900      -0.40679900
H       -2.51028100       1.50169900      -0.56354200
H       -1.77198500       1.50852100       1.04557500
H        3.53233100       1.17472200      -1.00241800
H        3.81907400       0.01979900       0.25585000
