14
Extracted from Q-Chem output
C      -0.388815      1.942995      0.271080
C      -0.094292      0.535023     -0.194365
C      -0.912634     -0.555191      0.333757
O       1.011188     -0.031529      0.432254
C       1.224632     -1.662140     -0.367645
O       1.509418     -1.564193     -1.536226
H      -1.295977      2.335717     -0.191860
H      -0.495890      1.973696      1.356257
H       0.451366      2.579487     -0.008827
H      -0.009783      0.482579     -1.287882
H      -1.052569     -0.586133      1.406529
H       0.129083     -1.935850     -0.068928
H      -1.528533     -1.212454     -0.271025
H       1.887207     -2.034119      0.427090
