15
Extracted from Q-Chem output
C       1.800103     -1.494833     -0.476646
O       0.403940     -1.512523     -0.220969
C      -0.179609     -0.319355     -0.001742
N       0.493266      0.746407     -0.033543
C      -0.185268      1.999834      0.211161
C      -1.646919     -0.469863      0.273732
H       2.025010     -0.893871     -1.358866
H       2.082716     -2.533095     -0.637418
H       2.342447     -1.075458      0.372081
H      -0.940276      2.215899     -0.553670
H      -0.684951      2.023069      1.186624
H       0.542876      2.809879      0.192340
H      -2.227516      0.175549     -0.387111
H      -1.958289     -1.501991      0.133765
H      -1.867532     -0.169647      1.300260
