15
Extracted from Q-Chem output
C       1.835246     -1.301547     -0.393729
O       0.430710     -1.443880     -0.307143
C      -0.277914     -0.345369      0.030492
N       0.286265      0.788599      0.222968
C      -0.326980      2.089510      0.285224
C      -1.740525     -0.564737      0.141822
H       2.115314     -0.634780     -1.213436
H       2.227692     -2.297558     -0.584568
H       2.246187     -0.907094      0.538785
H      -1.410783      2.146869      0.347960
H       0.243412      2.750606      0.924998
H       0.757114      1.492685     -0.509959
H      -2.251762     -0.233608     -0.768138
H      -1.955480     -1.619034      0.302181
H      -2.142357      0.024411      0.970226
