14
Extracted from Q-Chem output
O       1.476360      2.062027      0.047982
C       1.008271     -0.020308     -0.294519
C      -0.421603     -0.046415     -0.596834
O      -0.701589      0.975394      0.297413
C      -1.136509     -1.334861     -0.185029
O      -0.984717     -1.550519      1.192703
H       1.886684      2.152173      0.912168
H       1.786915      0.160311     -1.020672
H       1.294218     -0.414012      0.672219
H      -0.646449      0.191258     -1.645910
H       0.481221      1.947987      0.216164
H      -2.193805     -1.211386     -0.456220
H      -0.743714     -2.207806     -0.712869
H      -1.130457     -0.679491      1.588557
