14
Extracted from Q-Chem output
C      -1.787909      0.538358     -0.654612
C      -1.807134     -0.633158      0.308330
C       1.706059      0.115363     -0.203392
C       2.861220      0.031581      0.636496
O       2.661329     -0.826821     -0.510289
C       0.561131      0.536070     -0.620539
N      -0.470899      1.024522     -1.061286
H      -2.309076      1.401202     -0.231931
H      -2.837823     -0.906321      0.540226
H      -2.316156      0.292184     -1.578986
H      -1.302353     -0.386202      1.244220
H      -1.311396     -1.506109     -0.120515
H       3.659428      0.758693      0.522836
H       2.797013     -0.472440      1.596018
