14
Extracted from Q-Chem output
C      -1.866562      0.148537     -0.233167
C      -0.915058     -0.811027      0.257491
C       1.091985      0.254375     -0.190642
C       2.394029      0.122622      0.426733
O       2.104622     -0.437134     -0.858488
C       0.326975      1.294714     -0.674908
N      -0.711406      1.802173     -0.907417
H      -2.397085      0.777456      0.465751
H      -2.141638     -1.115625      0.318020
H      -2.288328      0.022005     -1.218977
H      -0.637043     -0.822391      1.301146
H      -0.528598     -1.587914     -0.386613
H       3.096091      0.951062      0.410895
H       2.532923     -0.600890      1.225647
