18
smiles: [C:1]1([H:7])([H:8])[C:2]([H:10])([H:11])[C:3]([C:4]([H:13])([H:14])[H:15])([H:12])[C:5]1([H:16])[H:17].[O:6]([H:9])[H:18]
C       -1.41630900      -0.71211400      -0.49937100
C       -1.09163700       0.31241100       0.60699500
C       -0.14383100       1.02471100      -0.38397400
C        1.16238400       1.59465500       0.12465800
C       -0.12380600      -0.27519400      -1.21910300
O        1.43120800      -2.16368000       1.56032900
H       -2.30583600      -0.42623000      -1.06313400
H       -1.50921500      -1.75940600      -0.21193500
H        0.63255600      -2.26869000       1.04173700
H       -1.91420900       0.88714000       1.03417800
H       -0.52761700      -0.14760700       1.42251400
H       -0.70088500       1.79402300      -0.92739700
H        1.72853600       0.83665700       0.67287500
H        1.78858300       1.94812600      -0.69830700
H        0.99185200       2.43650000       0.80030900
H        0.72229600      -0.90681900      -0.93620200
H       -0.14386500      -0.18644100      -2.30600000
H        2.10066100      -1.87174800       0.94036700
