11
Extracted from Q-Chem output
N       1.459813      0.622372      0.134169
C       1.170680      0.077902     -1.062093
O       0.100330     -0.700229     -1.068960
C      -0.724366     -0.796435      0.100682
C      -1.419551      0.504464      0.444964
O      -2.024707      0.653524      1.466162
H       2.215057      1.291846     -0.009439
H       2.239537     -0.245454     -0.458621
H      -0.163293     -1.144133      0.968224
H      -1.484855     -1.535463     -0.154457
H      -1.364747      1.297827     -0.327957
