17
smiles: [C:5]([C:6]([H:10])([H:14])[H:15])(=[C:7]([H:16])[H:17])[H:13].[O:1]=[C:2]([C:3](=[C:4]([H:11])[H:12])[H:9])[H:8]
O        0.76663500      -1.30997600       1.36298200
C        1.91503200      -0.96007600       1.27961500
C        2.35222800       0.36082700       0.76247700
C        1.47685800       1.25898400       0.33069400
C       -2.04566900       0.20693600      -1.11422400
C       -0.97007700      -0.57065600      -1.80314400
C       -2.28921300       0.18146000       0.18678100
H        2.73016600      -1.63981400       1.59780800
H        3.41945100       0.55648900       0.75068500
H       -0.28679200       0.09518200      -2.33647700
H        1.78992400       2.22323400      -0.04958700
H        0.41533100       1.03858000       0.35158100
H       -2.66475300       0.83556000      -1.75042800
H       -1.39571600      -1.24899800      -2.54733200
H       -0.38898300      -1.16266200      -1.09468600
H       -3.08652400       0.76806800       0.62660200
H       -1.69809100      -0.43012200       0.86099000
