18
Extracted from Q-Chem output
C       2.027946      1.109594     -0.129544
C       1.720599     -0.215152      0.310685
C      -0.047790     -0.873077     -0.406096
C      -0.935799     -1.488367      0.626564
C      -1.392940     -0.259029     -0.085063
C      -1.512723      1.049173      0.661843
H       2.634590      1.254921     -1.009571
H       0.792435      0.313590     -0.418609
H       1.781844      1.952852      0.496934
H       1.440442     -0.376727      1.346401
H       2.248169     -1.050298     -0.135630
H       0.071922     -1.383127     -1.356629
H      -0.644320     -1.380538      1.668641
H      -1.409248     -2.436197      0.400746
H      -2.157612     -0.405609     -0.842093
H      -2.472432      1.098815      1.180577
H      -1.445726      1.906651     -0.009849
H      -0.728291      1.157995      1.413746
