15
Extracted from Q-Chem output
C      -1.363384     -1.150456      0.134186
C      -0.825394      0.052501     -0.208477
C      -0.876053      1.072490     -1.244607
N      -0.947718      1.398929      0.198237
C       1.313200     -0.303030      0.132158
O       1.271685     -1.523110      0.534943
N       2.519976      0.233199      0.150340
H      -1.789796     -1.293205      1.120365
H      -1.603479     -1.869096     -0.639131
H       0.264618     -1.733095      0.476446
H       0.023346      1.413827     -1.740121
H      -1.787012      1.131253     -1.831355
H      -1.894894      1.591942      0.501202
H       2.629766      1.195442     -0.108450
H       3.334564     -0.268458      0.478891
