13
Extracted from Q-Chem output
O      -0.050572     -0.798119      1.783228
C       0.436900     -0.643997      0.528597
C      -1.115243     -1.054332     -0.758721
C      -1.272657      0.248465     -1.140188
C      -0.528801      1.272958     -0.875167
C       0.663676      0.747120     -0.001020
C       1.816368      1.078787      0.374127
H      -0.699233     -0.107228      1.952343
H       1.191575     -1.397583      0.323206
H      -1.818977     -1.505287     -0.062443
H      -0.713118     -1.756123     -1.487167
H      -0.559548      2.307760     -1.173447
H       2.732003      1.593428      0.571311
