11
Extracted from Q-Chem output
N      -2.182096     -0.132651     -0.031495
C      -0.912484     -0.054563     -0.073018
N      -0.115976     -1.207266     -0.134999
N       1.218359     -0.858603      0.153411
C       1.264545      0.521587      0.071127
C       0.041141      1.053944     -0.034849
H      -2.593954      0.791724      0.016997
H      -0.454350     -1.989254      0.404852
H       1.869184     -1.342723     -0.451728
H       2.226523      1.012112      0.105528
H      -0.218840      2.099460     -0.037324
