11
Extracted from Q-Chem output
N      -2.012793     -0.342632      0.239348
C      -0.775433      0.040200     -0.070676
N      -0.070446     -1.099841     -0.162918
N       1.243218     -0.795220      0.101706
C       1.364491      0.558332      0.031292
C       0.134819      1.142450     -0.078778
H      -2.796178      0.197614     -0.097542
H      -1.192714     -1.549485      0.203389
H       1.947057     -1.433053     -0.227245
H       2.340840      1.016592      0.090987
H      -0.090087      2.194115     -0.044126
