14
smiles: [C:1]([C:2](=[C:3]([H:11])[H:12])[H:10])([H:7])([H:8])[H:9].[O:4]([C:5](=[O:6])[H:14])[H:13]
C       -1.13375400      -1.14647600      -0.23085100
C       -0.19281700      -0.89101700       0.90300500
C        1.12178100      -1.03792600       0.84871000
O        0.77670700       1.53952900      -1.68050300
C        0.32367300       2.04866100      -0.53087300
O       -0.81779800       2.31601500      -0.30391700
H       -1.70329200      -0.24615700      -0.47575000
H       -1.86091400      -1.91935300       0.03132500
H       -0.60035600      -1.46841100      -1.12636900
H       -0.64392300      -0.55819800       1.83515000
H        1.75134500      -0.83548100       1.70659800
H        1.61751400      -1.36776800      -0.05873500
H        0.01856400       1.43466200      -2.27165100
H        1.15501200       2.18515300       0.17296800
