13
Extracted from Q-Chem output
C       1.747928      0.533317     -0.369537
C       0.699434     -0.051640      0.530430
N      -0.612926      0.185658      0.064976
C      -1.462876     -0.754664      0.092446
C      -2.893202     -0.415459     -0.256211
O      -2.907585      0.595620     -1.053047
N       0.864920     -0.662151      1.624397
H       1.587558      1.607711     -0.470824
H       1.670300      0.097916     -1.367999
H       2.748043      0.351940      0.020285
H      -1.221715     -1.760839      0.437037
H      -1.989707      0.935552     -1.203866
H       1.852135     -0.731045      1.855266
