15
Extracted from Q-Chem output
C      -2.491888     -0.257261     -0.462371
C      -1.384592      0.058893      0.456264
C      -0.138032      0.856569      0.616798
N       1.060905      0.524978     -0.129220
C       1.879686     -0.459606      0.218004
N       2.920518     -0.602152     -0.611169
C      -0.714418     -0.136703      1.542068
H      -2.092884     -0.635517     -1.406322
H      -3.157207     -1.010748     -0.040957
H      -3.072561      0.639426     -0.689428
H      -0.180483      1.923026      0.842026
H       1.232663      1.103621     -0.948981
H       3.596312     -1.316106     -0.422586
H       3.092430     -0.022575     -1.426581
H      -0.558205     -0.662773      2.466382
