14
smiles: [C:1]([C:2]([C:3](=[O:4])[H:12])([H:10])[H:11])([H:7])([H:8])[H:9].[C:5](=[O:6])([H:13])[H:14]
C       -1.75800700      -0.25874200       0.33408200
C       -0.40035100      -0.93615300       0.50666200
C        0.28676600      -1.15085300      -0.81328200
O        1.41082700      -0.81691000      -1.06696200
C        1.83201600       1.85734500      -0.09382900
O        0.83433700       2.19407700       0.47282200
H       -2.27161100      -0.17402500       1.29173700
H       -1.64706700       0.74562900      -0.07826000
H       -2.40300600      -0.82894500      -0.33824700
H        0.26322800      -0.36336200       1.15537300
H       -0.53873000      -1.92604600       0.95721000
H       -0.33220200      -1.66079000      -1.58516800
H        2.66471500       1.35441900       0.43431100
H        1.97708800       2.03040800      -1.17755700
