15
Extracted from Q-Chem output
C      -1.989230     -0.500722      0.266633
C      -0.823957     -0.051029     -0.572934
N      -0.212997      1.299406     -0.472848
C       0.329244      1.145471      0.894285
C       0.562729      0.112996     -0.122246
N       1.740971     -0.239109     -0.822891
O       2.482341     -1.168370     -0.045806
H      -2.908628     -0.033041     -0.090559
H      -1.876513     -0.269856      1.324170
H      -2.106140     -1.582202      0.175424
H      -0.905897     -0.331065     -1.620573
H       2.337374      0.578394     -0.899063
H      -0.345427      0.973558      1.725712
H       1.138228      1.837305      1.102042
H       2.520053     -1.946194     -0.606356
