15
Extracted from Q-Chem output
C      -1.890098     -0.640542     -0.225760
C      -0.684271      0.204665     -0.570026
N      -0.508664      1.434475      0.251801
C       0.908064      1.111947      0.547373
C       0.670005     -0.236900     -0.072011
N       1.255695     -1.346122     -0.134564
O       2.490488     -1.298766      0.506936
H      -2.810074     -0.121074     -0.500641
H      -1.915512     -0.842653      0.845506
H      -1.855367     -1.590665     -0.761994
H      -0.652683      0.405420     -1.648675
H      -0.641784      2.296481     -0.256655
H       1.162317      1.114942      1.609026
H       1.651659      1.702853      0.002148
H       2.820224     -2.194061      0.407537
