15
Extracted from Q-Chem output
C      -2.120784     -0.285056      0.130794
C      -0.788133     -0.177327     -0.559022
N      -0.011236      1.105165     -0.393566
C       0.526265      0.755074      0.963475
C       0.510494     -0.418047      0.079929
N       1.566665     -0.678575     -0.774732
O       2.790895     -0.418700     -0.076489
H      -2.833673      0.381651     -0.355858
H      -2.070636     -0.020638      1.186116
H      -2.498277     -1.305873      0.053809
H      -0.810684     -0.502823     -1.598525
H       1.042682      0.560749     -1.068774
H      -0.196160      0.842736      1.768714
H       1.504074      1.161159      1.193006
H       3.330661     -1.173950     -0.313883
