15
smiles: [C:3](=[C:4]=[O:5])([H:11])[H:12].[C:6]([O:7][H:15])([H:8])([H:13])[H:14].[O:1]=[C:2]([H:9])[H:10]
O       -1.74197700       0.39464200      -0.51596200
C       -1.39500000       1.44556600      -0.96879400
C       -1.09210200      -2.35796500       0.92211100
C       -0.10170500      -2.03638500       0.13132300
O        0.77451800      -1.75372600      -0.56654800
C        1.50237300       1.03515700       1.23259500
O        1.75742200       1.05761100      -0.15558000
H        0.50567500       0.64293400       1.46478300
H       -0.32677200       1.72433000      -1.04924200
H       -2.12362500       2.19567500      -1.33173800
H       -0.99447800      -3.21915800       1.56413800
H       -1.99110300      -1.76208400       0.91648100
H        1.55242800       2.06543600       1.58334600
H        2.24832900       0.44971200       1.78200800
H        1.71633400       0.16156600      -0.49069800
