15
Extracted from Q-Chem output
O      -0.886925      1.505898     -0.095320
C      -1.611643      0.490384     -0.456806
C      -1.036108     -0.965002      0.259849
C       0.333902     -1.003015     -0.042578
O       1.250235     -1.398907     -0.613716
C       1.268059      0.583476      1.173021
O       2.534286      0.723844      0.617872
H       0.334452      0.879001      0.430225
H      -1.609256      0.225957     -1.532837
H      -2.655023      0.465150     -0.091912
H      -1.543330     -1.818986     -0.183979
H      -1.205408     -0.860732      1.327328
H       1.068823      1.464809      1.791020
H       1.193928     -0.277504      1.860109
H       2.679501      0.031033     -0.033563
