13
Extracted from Q-Chem output
C       1.944008     -0.158391      0.634114
C       0.733132      0.496489      0.589488
O       0.283266      1.584541      0.855643
C      -0.340943     -0.473167     -0.439823
C      -1.730704     -0.141188     -0.026607
N      -1.247960      0.240144     -1.332824
H       0.933014     -0.030268     -0.635756
H       1.984387     -1.209927      0.388158
H       2.796361      0.296341      1.123589
H      -0.115977     -1.506362     -0.693126
H      -1.837812      0.627633      0.728462
H      -2.447767     -0.953531     -0.016809
H      -1.005878      1.228177     -1.316912
