13
Extracted from Q-Chem output
N      -2.700416      1.138280     -0.303737
C      -1.397476      1.098130     -0.500769
O      -0.832815     -0.108496     -0.464686
C       0.564188     -0.131868     -0.676672
C       1.454532      0.051821      0.501006
C       1.272081     -1.310802     -0.119064
H      -3.143380      0.206635     -0.244144
H      -2.139503      1.761807     -1.274599
H       0.857189      0.270787     -1.637756
H       2.389939      0.575420      0.357447
H       0.970409      0.230014      1.451814
H       0.667331     -2.022022      0.427386
H       2.081764     -1.741424     -0.692174
