8
Extracted from Q-Chem output
O       2.477143     -0.169268      0.038209
C       0.285504     -0.040539      0.478867
N       1.307230     -0.702749      0.558632
O      -2.327154     -0.606873     -0.693347
C      -1.835657      0.432722     -0.381413
N      -0.769136      0.568297      0.535687
H       3.113035     -0.872524      0.194044
H      -2.201506      1.410832     -0.724413
