12
Extracted from Q-Chem output
O      -1.610873     -0.593610      1.049842
C      -1.342580     -0.524136     -0.154035
C      -0.650708      0.736781     -0.405251
C       0.596325      1.031350      0.273841
N       1.429208     -0.042077      0.692997
C       1.167245     -1.153034      0.102647
O       0.175893     -1.389545     -0.701969
H      -1.939153     -1.002533     -0.936522
H      -1.128102      1.531036     -0.981505
H       1.155650      1.746084     -0.349345
H       0.296876      1.652156      1.140344
H       1.847008     -1.990138      0.275522
