16
Extracted from Q-Chem output
C       1.567746      0.503433     -0.558569
C       0.586340     -0.566304     -0.157677
O       1.099755     -1.699190      0.312123
C      -0.749359     -0.551279     -0.906007
C      -1.404177      0.438355      0.062295
C      -0.474614      0.174069      1.255606
H       1.097340      1.462383     -0.778558
H       2.047423      0.130931     -1.468320
H       2.334633      0.621751      0.204444
H       0.442891     -0.916261      1.121877
H      -0.678802     -0.247502     -1.951657
H      -1.194138     -1.544221     -0.846316
H      -2.460316      0.262379      0.260461
H      -1.297050      1.465932     -0.285297
H      -0.922574     -0.515296      1.982986
H      -0.050551      1.033837      1.767717
