9
smiles: [C:4](#[C:5][H:9])[H:8].[O:1]1[C:2](=[N:3][H:7])[O:6]1
O        3.26949700      -0.53795500       0.81701900
C        2.04054500      -0.11827600       0.52979000
N        1.28811300       0.80852600       0.23611000
C       -2.03741100       0.08020600      -0.02703800
C       -3.17513600      -0.28052800      -0.07794600
O        2.02401100      -1.42019900       0.75656600
H        1.76006200       1.70150000       0.16181500
H       -1.02348000       0.40258400       0.01835800
H       -4.18882800      -0.60364100      -0.12309900
