11
Extracted from Q-Chem output
N      -1.737389     -0.401212     -0.433380
C      -0.411455     -0.124087     -0.091080
C       0.716551     -1.000498     -0.350766
N       1.739798     -0.134427     -0.123609
N       1.427089      1.144662      0.185114
C       0.133246      1.188838      0.200893
H      -2.418454     -0.170616      0.272313
H      -1.853107     -1.345597     -0.768249
H       0.016968     -0.868436      0.829047
H       2.712354     -0.382285     -0.133962
H      -0.394121      2.107481      0.409199
