17
smiles: [C:1]([C@@:2]1([H:11])[N:3]=[C:4]1[H:13])([H:8])([H:9])[H:10].[C:5]1([H:14])=[N:7][C:6]1([H:15])[H:16].[H:12][H:17]
C       -2.01317200      -0.04411000      -0.06815100
C       -1.41521200      -0.20453600      -1.43892800
N        0.01369700       0.26430000      -1.67304100
C       -0.21029800      -0.96156900      -1.69230500
C        2.54794400      -1.07499300       1.04988300
C        1.62085900      -0.00117100       1.32379400
N        1.36861400      -1.46346900       0.98060000
H       -2.41740600       0.96207200       0.06303500
H       -1.26372100      -0.21482000       0.70601200
H       -2.82854900      -0.75540400       0.08495800
H       -2.09246000      -0.01513400      -2.26894900
H       -0.01738700       2.73674200      -0.62991800
H        0.33675100      -1.88643800      -1.81759500
H        3.54727600      -1.47084000       0.93639300
H        1.40979700       0.29844500       2.34534700
H        1.37525800       0.72549600       0.55614200
H       -0.03893800       3.37012600      -0.23909300
