17
Extracted from Q-Chem output
C      -2.031231     -0.321865     -0.039229
C      -1.153753     -0.308968     -1.264139
N      -0.139942      0.766698     -1.516725
C       0.299917     -0.420081     -1.236588
C       1.046250     -0.595539      0.691908
C       2.196801      0.291161      0.715797
N       0.899730      0.455079      1.433521
H      -2.856157      0.382138     -0.166646
H      -1.498082     -0.055179      0.870825
H      -2.464070     -1.316484      0.092137
H      -1.682658     -0.589356     -2.174617
H      -0.047981      1.680856     -0.200365
H       1.140166     -0.961124     -1.648459
H       0.708456     -1.612418      0.821702
H       3.062028      0.118778      1.346968
H       2.363384      0.927546     -0.151897
H       0.147981      1.568693      0.598474
