18
smiles: [C:1](=[C:6]([H:17])[H:18])([H:7])[H:8].[C:2](=[C:3]([H:11])[H:12])([H:9])[H:10].[C:4](=[C:5]([H:15])[H:16])([H:13])[H:14]
C       -2.46653800       0.32432300       0.75484000
C        1.05095700       1.97129300       0.21630400
C        1.51881700       1.68359300      -0.98602500
C        0.95489700      -1.82766200       0.88031200
C        1.08159900      -2.09198900      -0.40858100
C       -2.10614900      -0.06180200      -0.45696700
H       -3.26256600      -0.17333700       1.29699200
H       -1.98158300       1.15515600       1.25462400
H        0.80886400       2.98820400       0.50373400
H        0.88881300       1.20251900       0.96325500
H        1.76069200       0.66668500      -1.27362800
H        1.68065400       2.45240800      -1.73300400
H        1.75815800      -2.01949100       1.58256100
H        0.04194300      -1.40896200       1.28827500
H        1.99465900      -2.51051500      -0.81649000
H        0.27845200      -1.90001200      -1.11091100
H       -1.30999500       0.43568500      -0.99909100
H       -2.59102200      -0.89276400      -0.95662500
