18
Extracted from Q-Chem output
C      -1.279704      0.726738     -0.092179
C      -0.027819      1.397627      0.468840
C       1.242825      0.785683     -0.116797
C       1.279749     -0.726691      0.092325
C       0.027911     -1.397589     -0.468785
C      -1.242816     -0.785675      0.116685
H      -2.175965      1.151381      0.367601
H      -1.350693      0.938956     -1.165792
H      -0.014223      1.278172      1.558914
H      -0.055085      2.473119      0.274432
H       1.283106      1.000654     -1.191442
H       2.127316      1.250735      0.326342
H       2.176036     -1.151436     -0.367314
H       1.350552     -0.938799      1.165980
H       0.014378     -1.278209     -1.558868
H       0.055082     -2.473088     -0.274385
H      -2.127199     -1.250634     -0.326807
H      -1.283449     -1.000945      1.191252
