16
Extracted from Q-Chem output
C       1.516170     -0.231942      0.742194
C       0.579834     -0.939624     -0.198733
C      -0.894787     -0.675339     -0.275608
C      -1.434236      0.657931      0.208065
C      -0.198561      1.153439     -1.550811
C      -0.010350     -0.327104     -1.442712
H       1.457128     -0.662684      1.744207
H       1.296460      0.832819      0.829913
H       2.548588     -0.323787      0.398510
H       0.804797     -1.994942     -0.320942
H      -1.568042     -1.522565     -0.294417
H      -2.524481      0.691030      0.210375
H      -1.049345      1.021242      1.159668
H       0.571198      1.696307     -0.979011
H      -1.283267      1.456356     -0.649107
H      -0.030611     -0.895511     -2.365119
