12
Extracted from Q-Chem output
N       0.501898     -0.328918      1.752405
C       1.576504     -0.699180      2.019827
C       0.253308      0.097639     -1.503382
C      -0.670275     -0.797706     -0.716918
N      -1.363412     -0.107068      0.341059
C      -0.785759      0.103897      1.431416
N       0.569715      1.252213     -1.114672
H       0.631271     -0.357581     -2.426244
H      -1.412470     -1.210036     -1.404182
H      -0.069656     -1.640793     -0.347944
H      -1.279018      0.643689      2.232877
H       1.212772      1.696620     -1.764661
