12
Extracted from Q-Chem output
C       1.541666     -0.237840      0.366257
O       1.831380     -0.016716      1.508704
C       0.305866      0.265409     -0.320953
C      -0.797824      0.848723      0.561833
O      -1.680223     -0.242844      0.249936
C      -0.735468     -0.826446     -0.648066
H       2.199315     -0.868496     -0.269379
H       0.605429      0.867421     -1.180901
H      -1.204990      1.805661      0.226967
H      -0.556460      0.895146      1.625197
H      -0.464325     -1.846293     -0.356549
H      -1.095672     -0.830576     -1.680277
