12
smiles: [C:1](#[C:2][H:9])[H:7].[C:3]1([H:8])=[C:4]([H:10])[C:5]([H:11])([H:12])[O:6]1
C        3.51092100      -0.39145500      -0.37450500
C        2.51059800      -0.85151200       0.08903900
C       -0.53437600       0.85245700      -0.01511200
C       -1.14202700      -0.21002900      -0.53657600
C       -2.31831800       0.15517700       0.32828300
O       -1.53720000       1.29014000       0.81941900
H        4.40111500       0.02087300      -0.78853700
H        0.40927400       1.37783700      -0.07308600
H        1.61885000      -1.26144400       0.50216500
H       -0.91077500      -0.98197300      -1.24811600
H       -2.56404500      -0.51923100       1.14917900
H       -3.22022700       0.50681700      -0.17373100
