12
Extracted from Q-Chem output
C       2.632173     -0.319642      0.117443
C       1.487975     -0.201421     -0.286907
C       0.092289      0.518927     -0.308722
C      -0.762327     -0.628118     -0.225362
C      -1.795557      0.341802      0.345412
O      -0.694943      1.312550      0.576640
H       3.635647     -0.477102      0.441184
H       0.155275      1.034664     -1.272502
H       0.676664     -1.023394     -1.015868
H      -0.466947     -1.412341      0.459218
H      -2.283324      0.037323      1.271435
H      -2.515398      0.793946     -0.340132
