16
Extracted from Q-Chem output
C       1.664072     -0.698789     -0.079843
C       0.464249     -0.687078      0.860439
N       0.391367      2.435982      0.715836
C      -0.432163      1.573261      0.351784
O      -1.070616      2.613945     -0.123067
C      -0.735913      0.125206      0.359957
C      -1.272544     -0.299046     -1.008142
H       1.995934      0.313787     -0.317982
H       1.439161     -1.209153     -1.017752
H       2.502572     -1.220178      0.383030
H       0.122944     -1.710385      1.037367
H       0.766379     -0.292663      1.834561
H      -1.548494      0.022729      1.089166
H      -0.534750     -0.137850     -1.794357
H      -2.167052      0.266752     -1.268319
H      -1.529058     -1.359111     -0.989663
