14
Extracted from Q-Chem output
N      -0.635774      3.056751      0.237333
C      -0.384578      1.858503      0.206922
C      -0.122833      0.592924      0.046292
C       1.273708      0.003038     -0.088738
C       0.973398     -1.455931     -0.304195
C      -0.323241     -1.725045     -0.285382
C      -1.172830     -0.504686     -0.052669
H      -0.705868      3.452890      1.172091
H       1.825322      0.433492     -0.930154
H       1.885695      0.158655      0.805404
H       1.755668     -2.189282     -0.455656
H      -0.753828     -2.709994     -0.417023
H      -1.875523     -0.334194     -0.874115
H      -1.769643     -0.598961      0.860130
