14
Extracted from Q-Chem output
N      -0.697580      3.183650      0.290743
C      -0.447283      2.026362      0.041864
C      -0.155999      0.696577     -0.060854
C       1.245898      0.131559     -0.164969
C       0.970905     -1.348920     -0.156628
C      -0.322640     -1.633729     -0.125994
C      -1.194162     -0.405909     -0.109467
H      -0.412582      1.987792      1.207643
H       1.753774      0.438130     -1.087575
H       1.899436      0.430872      0.661260
H       1.766525     -2.082544     -0.187741
H      -0.737878     -2.633680     -0.127846
H      -1.822155     -0.352513     -1.007238
H      -1.876588     -0.399492      0.747042
