17
Extracted from Q-Chem output
C      -2.483869     -0.642035     -0.565624
C      -1.413422      0.441017     -0.632940
C      -0.129704      0.005812      0.013474
O       0.678840     -0.907176     -0.739076
C       1.178545      0.401921     -0.488569
C       2.406931      0.452707      0.386998
O       2.360656     -0.486949      1.430169
H      -3.408166     -0.312647     -1.042250
H      -2.144913     -1.547916     -1.070988
H      -2.716322     -0.901834      0.469780
H      -1.211756      0.707584     -1.673858
H      -1.761889      1.349047     -0.130833
H      -0.195214     -0.255768      1.068433
H       2.098266     -1.325669      1.036888
H       2.492219      1.442388      0.841848
H       1.216290      1.042441     -1.368954
H       3.293489      0.298998     -0.243492
