15
smiles: [C:1]([C:2](=[C:3]([O-:4])[N:5]([C+:6]([H:13])[H:14])[H:12])[H:11])([H:7])([H:8])[H:9].[H:10][H:15]
C        2.39918600      -0.16851900       0.21541000
C        1.05687300       0.09411700      -0.38014200
C       -0.08218900      -0.42402600       0.15517800
O       -0.36748100      -1.14265400       1.11483700
N       -1.27526700       0.01144700      -0.65517500
C       -2.44459200      -0.36040400      -0.32502900
H        3.07496600      -0.64732200      -0.49979400
H        2.88464800       0.75413900       0.54837000
H        2.29875600      -0.82635800       1.07871100
H       -0.52779600       1.89286200       1.53890800
H        0.99013300       0.71716500      -1.26508100
H       -1.12025700       0.60325700      -1.46085900
H       -3.30774000      -0.05272000      -0.89995300
H       -2.49754800      -0.99175400       0.55724600
H       -1.12691200       2.22866600       1.82642900
