15
Extracted from Q-Chem output
C      -1.454938     -0.892596     -0.145392
N      -0.336921     -0.025985      0.190043
C      -0.706853      1.384564      0.116617
C       0.835619     -0.346549     -0.514957
C       2.063941     -0.267164      0.122436
O       3.251501     -0.291396     -0.149538
H      -1.787129     -0.766666     -1.187451
H      -2.297719     -0.667371      0.509559
H      -1.173926     -1.934871      0.005185
H      -1.518266      1.579046      0.820082
H       0.144420      2.004665      0.390749
H      -1.042977      1.677434     -0.889548
H       0.793703     -0.542163     -1.588748
H       1.511932     -1.019847      0.963661
H       1.727916     -0.044917      1.320645
