11
Extracted from Q-Chem output
N       2.244483     -0.371557     -0.579243
C       1.211018      0.196509     -0.440441
C       0.157959      1.066935     -0.567758
C      -1.000589      0.605805      0.022503
C      -1.079647     -0.829970      0.359887
O      -0.027197     -0.724142      1.245148
H       2.829518     -0.784546      0.127794
H       0.365954      2.098434     -0.810219
H      -1.764987      1.314546      0.330601
H      -0.910076     -1.498336     -0.503492
H      -2.038619     -1.105071      0.823400
