10
Extracted from Q-Chem output
C      -0.505168     -0.756760     -0.048797
C      -0.563596      0.758764      0.228446
N       0.748520      1.259825     -0.231555
C       1.636656      0.476798     -0.313536
O       0.753873     -1.242207      0.217265
H      -1.231610     -1.237348      0.618463
H      -0.820723     -0.943215     -1.087974
H      -1.364395      1.275681     -0.298639
H      -0.628180      0.989934      1.293268
H       1.966313     -0.599993     -0.378747
