14
Extracted from Q-Chem output
O       2.728574      0.815522      0.734048
C       1.673985      1.206341      1.019563
C       0.478945      0.907293     -0.608639
C       0.194203     -0.489909     -0.944876
C      -0.362167     -1.252899      0.249623
C      -1.431465     -0.144933      0.322044
N      -0.904457      0.541217     -0.901020
H       0.614621      1.501776      0.976760
H       0.927360      1.529498     -1.381187
H       0.506979     -0.942129     -1.878773
H       0.307831     -1.393338      1.099586
H      -0.785835     -2.218436     -0.020503
H      -1.450832      0.488853      1.213463
H      -2.442555     -0.503965      0.137189
