13
Extracted from Q-Chem output
C      -1.673412      0.387360      0.159448
N      -0.386491      0.170378     -0.014829
C       0.247572     -0.969831      0.490133
C       1.573978     -0.721028      0.391953
C       1.771726      0.552538     -0.293356
C       0.558083      1.048120     -0.598213
H      -2.163826      0.037049      1.051622
H      -1.970053     -1.576180     -0.002037
H      -2.145172      1.162533     -0.435060
H      -1.172224     -1.756445      0.303887
H       2.358406     -1.430373      0.607595
H       2.715164      0.976588     -0.605167
H       0.247974      1.979990     -1.043110
