11
Extracted from Q-Chem output
N       2.321594      0.056649     -0.245689
C       1.076654      0.111351     -0.134832
C       0.099323     -1.010172     -0.058627
N      -1.034068     -0.548713      0.794665
C      -1.166967     -0.560909     -0.671075
C      -1.010557      0.703673      0.041902
O       0.295520      1.233480     -0.049354
H       2.733373      0.985980     -0.274282
H       0.404498     -2.042017      0.016809
H      -1.937458     -1.056640     -1.239016
H      -1.777686      1.441257      0.219133
