15
Extracted from Q-Chem output
C      -2.262890      0.170889      0.268881
C      -0.787236      0.147131      0.070499
C      -0.001860      1.271632     -0.544467
N       1.385255      0.857140     -0.560393
C       1.412768     -0.311921     -0.031310
N       2.567093     -1.019167      0.183790
C       0.091438     -0.809140      0.380672
H      -2.780482      0.307989     -0.683912
H      -2.622923     -0.752873      0.721518
H      -2.554485      1.003789      0.913477
H      -0.347183      1.492264     -1.561259
H      -0.120570      2.197655      0.030457
H       2.490370     -2.019435      0.224738
H       3.373712     -0.672428     -0.307213
H      -0.110872     -1.763782      0.848770
