13
Extracted from Q-Chem output
C       1.601010      0.333865     -0.243500
C       0.383598      0.353384      0.663480
C      -0.796608     -0.426121      0.137164
O      -1.873605     -0.319789      0.934625
C      -1.181842      0.663080     -1.398871
N      -1.477467     -0.433498     -1.718000
H       2.446839      0.806826      0.255435
H       1.892535     -0.687148     -0.500301
H       1.405256      0.873535     -1.170016
H       0.066495      1.370041      0.889896
H       0.616652     -0.139760      1.614966
H      -0.527428     -1.443049     -0.135420
H      -2.557007     -0.930405      0.643848
