15
Extracted from Q-Chem output
O      -1.409428     -0.551031      1.704782
C      -1.835228      0.291996      0.764262
C      -0.594787     -0.231466     -0.949719
C       0.496441      0.487000     -1.662502
C       0.829285     -0.552767     -0.612797
C       1.390234     -0.101920      0.638997
C       1.860653      0.292272      1.670080
H      -0.646550     -0.163663      2.150153
H      -1.067951      0.707851     -0.080392
H      -2.715538     -0.137482      0.278526
H      -1.179801     -0.967694     -1.480385
H       0.694064      0.242994     -2.699186
H       0.700797      1.517853     -1.395844
H       1.221672     -1.501643     -0.958968
H       2.303511      0.647352      2.570632
