14
Extracted from Q-Chem output
O       2.127966      0.375242      1.527809
C       2.278319     -0.112799      0.301910
C       1.328258     -0.579814     -0.551948
C      -0.066894     -0.725926     -0.336672
C      -0.753126      0.230142      0.490289
C      -2.153302      0.518584     -0.022876
N      -1.987701     -0.241537      1.166317
H       1.194929      0.390987      1.770502
H       3.332205     -0.208642      0.057041
H       1.750359     -1.071463     -1.424536
H      -0.312459      1.091538      0.998799
H      -2.444016      0.020556     -0.939147
H      -2.495990      1.537758      0.110666
H      -2.074650     -1.230190      0.947196
