13
Extracted from Q-Chem output
O       1.986044     -0.751751      0.363608
N       1.375303      0.476268      0.126423
C       0.143071      0.356538     -0.157830
C      -0.599633     -0.950037     -0.218950
C      -1.008673     -1.673913      0.965478
C      -0.625581      1.608810     -0.432529
H       2.902426     -0.511233      0.511882
H      -1.300506     -1.000803     -1.054997
H       0.132449     -1.794116     -0.386480
H      -1.070965      1.572569     -1.429745
H      -0.340384     -1.340767      1.781920
H       0.027112      2.476722     -0.363945
H      -1.444111      1.718932      0.283249
