13
Extracted from Q-Chem output
O       2.389014     -0.699245     -0.347477
N       1.655812      0.464393     -0.178564
C       0.427900      0.219191     -0.018267
C      -0.314815     -1.077686     -0.073978
C      -1.737527     -0.536790     -0.209868
C      -0.579910      1.307128      0.167439
H       3.279902     -0.376417     -0.497222
H      -0.000430     -1.673369     -0.933849
H      -0.130832     -1.665464      0.831414
H      -1.549630      0.878125     -0.379726
H      -2.196305     -0.494380      0.790677
H      -0.392681      2.218202     -0.400725
H      -0.793594      1.536112      1.209430
