15
Extracted from Q-Chem output
C      -2.187126      0.000862      0.292869
C      -0.786047     -0.326838     -0.137164
C       0.243687      0.693553     -0.277770
C       0.882285      1.605461     -0.922818
N       1.408037      2.573453     -1.468324
N       0.289741     -0.161037      0.847065
C       1.339687     -1.168436      0.856902
H      -2.181894      0.857857      0.965333
H      -2.806134      0.240538     -0.573497
H      -2.636429     -0.849759      0.809358
H      -0.680301     -1.187231     -0.798681
H       2.087742      2.324818     -2.184346
H       1.559675     -1.555014     -0.147436
H       1.033290     -1.992399      1.502582
H       2.249183     -0.729549      1.267398
