15
Extracted from Q-Chem output
C      -2.095648      0.059384      0.178472
C      -0.680567     -0.137728     -0.278287
C       0.301628      0.943697     -0.267075
C       0.547109      2.379177     -0.365261
N       1.327042      1.833632     -1.238009
N       0.407783     -0.026387      0.738441
C       1.474580     -1.006499      0.684994
H      -2.150568      0.868304      0.905551
H      -2.736849      0.309441     -0.668587
H      -2.478181     -0.853759      0.638286
H      -0.522619     -0.926146     -1.013624
H       1.153805      0.666751     -1.331463
H       1.712374     -1.318072     -0.344451
H       1.182998     -1.884920      1.259807
H       2.372512     -0.580595      1.132678
