14
Extracted from Q-Chem output
O       2.277164     -0.358752      0.212240
C       1.335960      0.145557     -0.698185
C      -0.073727      0.073671     -0.149351
C      -0.494101     -1.038202      0.754628
N      -0.209641      0.275607      1.289158
C      -1.154839      0.574281     -1.010705
O      -2.252777      0.959281     -0.422563
H       2.079409      0.040835      1.066709
H       1.557146      1.188697     -0.960818
H       1.404109     -0.448452     -1.611120
H       0.241891     -1.801681      0.974261
H      -1.528166     -1.360672      0.703621
H      -1.073445      0.777433      1.480404
H      -2.178445      1.010346     -1.587115
