13
Extracted from Q-Chem output
O       1.943392      0.620825      0.364916
C       0.916629      0.223944     -0.486809
C       0.198663     -1.113362     -0.156502
C      -1.114584     -0.365078      0.103888
N      -0.801189      1.026684      1.065253
C      -0.425777      0.966862     -0.254565
H       1.518750      0.810597      1.212297
H       1.289739      0.268271     -1.509626
H       0.597204     -1.664310      0.693849
H       0.122563     -1.776841     -1.017515
H      -2.082328     -0.536606     -0.351686
H      -1.326122     -0.213469      1.253614
H      -0.875048      1.634669     -0.990232
