17
Extracted from Q-Chem output
C       2.281176      0.345668     -0.668678
C       1.010190     -0.219558     -0.138201
C       0.660502     -0.057468      1.324994
O      -0.792901     -0.084561      1.273293
C      -1.139447      0.013639     -0.007819
C      -2.544952      0.298710     -0.368192
O      -0.145432      0.289204     -0.769122
H       2.316491      0.262781     -1.755510
H       3.122333     -0.225845     -0.272180
H       2.440154      1.400393     -0.395624
H       0.179611     -1.706904     -0.326017
H       0.965337      0.895962      1.794328
H       0.997613     -0.883924      1.952753
H      -0.653099     -1.875913     -0.357992
H      -2.803740      1.326964     -0.097409
H      -2.690787      0.159956     -1.436536
H      -3.204593     -0.372309      0.178937
