15
smiles: [H:8][H:9].[O:1]=[C:2]1[C:3]([H:10])([H:11])[C@:4]2([H:12])[C:5]([H:13])([H:14])[C@@:6]1([H:15])[O:7]2
O        2.08017100      -0.26123000       0.15039100
C        0.96559200       0.01755000      -0.17657100
C        0.43288700       1.24870900      -0.91913200
C       -1.04010800       0.83259700      -0.86099600
C       -1.25156800       0.36987200       0.58943500
C       -0.34186600      -0.74620100       0.04669000
O       -0.95910800      -0.56782200      -1.25591500
H        2.09756600      -2.33512900       1.77671100
H        1.94328400      -2.86594400       2.27550800
H        0.67947000       2.17394500      -0.39722200
H        0.81200600       1.29377900      -1.93975300
H       -1.77551500       1.41038100      -1.41478000
H       -0.89537300       0.99924900       1.40577500
H       -2.26215900       0.00879600       0.76680900
H       -0.30284700      -1.76437100       0.42146000
