19
smiles: [C:1]([C:2]([O:3][C@@:4]1([H:13])[C:5]([H:14])([H:15])[C:6]1=[C:7]([H:17])[H:19])([H:11])[H:12])([H:8])([H:9])[H:10].[H:16][H:18]
C        3.11034600       0.22759200       0.41912500
C        1.76148900      -0.00880700      -0.21801700
O        0.85013000      -0.39139400       0.79461800
C       -0.42404600      -0.65342200       0.31031000
C       -1.57627600      -0.31098800       1.23124100
C       -1.33339500       0.45628100       0.00412700
C       -1.66830000       1.45648100      -0.77853300
H        3.47003900      -0.68010900       0.90532300
H        3.04327400       1.01649900       1.16931200
H        3.83886600       0.52713100      -0.33616500
H        1.82576500      -0.79902700      -0.97939100
H        1.39795600       0.90065100      -0.71290300
H       -0.50454800      -1.56613900      -0.28074600
H       -1.30510900       0.15523000       2.17205400
H       -2.41616500      -0.99448000       1.28004500
H       -3.19055300      -1.26129000      -1.43334200
H       -1.10812000       1.67728600      -1.68015900
H       -3.53011000      -1.92393900      -1.43687600
H       -2.51426400       2.09465700      -0.54852300
