14
Extracted from Q-Chem output
C      -2.207916     -0.722117      0.241094
C      -0.727516     -0.720815      0.505647
C       0.066908      0.400026     -0.140913
N       1.471129      0.204431      0.065843
C       2.443820      0.909259     -0.554933
O       3.628257      0.747917     -0.389764
O      -0.184930     -1.555553      1.182416
H      -2.617989      0.288921      0.242870
H      -2.716138     -1.337704      0.979535
H      -2.384269     -1.146618     -0.750811
H       2.042420      1.670963     -1.251571
H      -0.297212      1.338993      0.297607
H      -0.190998      0.432312     -1.205438
H       1.736266     -0.532876      0.703866
