14
Extracted from Q-Chem output
C      -1.651750     -0.918790     -0.201594
C      -0.278538     -0.435349      0.154990
C      -0.031191      1.072572      0.338283
N       1.414054      1.042084      0.378782
C       1.744051     -0.194292     -0.157280
O       2.715400     -0.779708     -0.440723
O       0.483088     -1.147173      0.910118
H      -2.243282     -0.940925      0.718148
H      -1.601196     -1.934425     -0.589588
H      -2.144497     -0.267998     -0.924372
H       0.592609     -0.384587     -0.985782
H      -0.457095      1.395232      1.290412
H      -0.433080      1.672197     -0.482267
H       1.923227      1.804594     -0.042842
