11
Extracted from Q-Chem output
C      -1.223791     -0.635053      0.203141
C       0.038977      1.443461     -0.756359
O      -0.365974      0.467653      0.551650
C       0.958863      0.520544     -0.038816
C       1.412712     -0.700428     -0.689558
N       1.800675     -1.660101     -1.183230
H      -2.223658     -0.323704      0.493314
H      -1.180586     -0.813823     -0.869381
H      -0.908853     -1.510256      0.770960
H       0.115507      2.400025     -0.221279
H       1.670562      0.841692      0.720589
