15
Extracted from Q-Chem output
C       1.941744      0.395485     -0.174843
C       0.579430     -0.237746     -0.336432
C      -0.103777     -0.789351      0.910041
O      -0.561384      1.205214      1.008923
C      -0.643900      0.734133     -0.343747
C      -1.783706     -0.271503     -0.416586
C      -1.408498     -1.250388      0.416572
H       2.686322     -0.362468      0.074954
H       1.930957      1.144206      0.615783
H       2.253003      0.874229     -1.105389
H       0.547280     -0.949362     -1.160563
H      -0.103953      0.175181      1.674553
H      -0.673531      1.566610     -1.053288
H      -2.742908     -0.128457     -0.897466
H      -1.977744     -2.086379      0.794677
