19
Extracted from Q-Chem output
C      -2.526741      0.889362      0.555103
C      -1.409113     -0.091972      0.229050
C       0.625887     -2.153560     -1.708073
O       0.893448     -0.919051     -1.476083
C       1.101908     -0.371744     -0.134920
C       2.462024      0.288840     -0.122150
C      -0.042415      0.578609      0.163289
H      -3.494029      0.386393      0.594306
H      -2.593577      1.675586     -0.200582
H      -2.363535      1.371874      1.521969
H      -1.384764     -0.886265      0.982894
H       0.618491     -2.682044     -0.712164
H      -1.621679     -0.579740     -0.726360
H       1.075468     -1.229961      0.547717
H       3.245594     -0.430506     -0.361413
H       2.664704      0.703065      0.866616
H       2.501396      1.099696     -0.851102
H      -0.045038      1.368208     -0.595383
H       0.174720      1.065854      1.119514
