14
Extracted from Q-Chem output
C      -0.948588      0.002657     -1.823258
C      -0.490394     -0.364225      1.990053
N       0.457838      0.161366      1.261639
C       0.716189      0.046136     -0.061495
N      -0.153776     -0.726175     -0.840225
C       1.812521      0.767982     -0.570286
N       2.708980      1.347214     -1.017094
H      -0.339086      0.546307     -2.555064
H      -1.586791      0.721952     -1.308065
H      -1.591845     -0.698776     -2.356103
H      -1.212685     -1.004990      1.512442
H      -0.506396     -0.136423      3.042331
H       1.117490      0.755507      1.750196
H       0.304426     -1.526132     -1.252746
