11
Extracted from Q-Chem output
N      -0.893738      1.584465      0.118008
C      -0.084109      0.517708      0.024730
C      -0.551560     -0.913332     -0.000986
N       0.685743     -1.661254     -0.118409
C       1.590929     -0.758363     -0.145629
N       1.205157      0.586338     -0.063458
H      -1.883700      1.483032      0.223812
H      -1.089788     -1.188437      0.910691
H      -1.214181     -1.115103     -0.847495
H       2.645167     -0.997357     -0.230819
H      -0.489702      2.502320      0.153808
