15
Extracted from Q-Chem output
C      -1.555924     -1.362742     -0.693608
O      -0.809925     -2.088830      0.311411
C      -0.206454     -0.882458      0.736602
C       0.615981     -0.261553     -0.362332
C       1.505143      0.855739      0.023888
C       1.142222      2.011490      0.565457
C      -0.877001     -0.059763     -0.316938
H      -1.384009     -1.752670     -1.700547
H      -2.622161     -1.381875     -0.458863
H      -0.014431     -0.722178      1.789651
H       1.015244     -0.946636     -1.104214
H       2.563509      0.665233     -0.130084
H       1.883235      2.747395      0.849783
H       0.105630      2.271854      0.746822
H      -1.341678      0.913897     -0.273116
