15
Extracted from Q-Chem output
C      -1.616125     -0.859888     -0.717408
O      -0.775063     -1.937679     -0.285005
C      -0.116308     -1.051948      0.663047
C       1.140437     -0.571547      0.017041
C       1.624554      0.727040      0.134817
C       0.840240      1.843237      0.044162
C      -0.958880      0.077659      0.255022
H      -1.549387     -0.660457     -1.790484
H      -2.662138     -1.063552     -0.453475
H      -0.053958     -1.494368      1.661268
H       1.711709     -1.337613     -0.505664
H       2.698376      0.848554      0.291709
H       1.149888      2.792018      0.473627
H       0.028444      1.868067     -0.663238
H      -1.442411      0.827382      0.858494
