15
Extracted from Q-Chem output
C       1.727623      0.633128      0.442845
N       1.089561     -0.532200     -0.857140
C       0.483913     -1.572710     -0.260015
C      -0.791580     -1.233810      0.187137
C      -0.998548      0.112766     -0.107996
N      -2.104591      0.911769      0.221782
C       0.182440      0.546720     -0.715545
H       2.731598      0.246931      0.304453
H       1.747965      1.719675      0.385400
H       1.270534      0.280104      1.361186
H       0.990345     -2.522758     -0.168467
H      -1.495888     -1.897806      0.670368
H      -2.915644      0.369252      0.472634
H      -2.348502      1.572244     -0.499757
H       0.321104      1.436377     -1.311702
