16
Extracted from Q-Chem output
C       1.778627     -0.145146      0.052598
C       0.535484      0.711259      0.138033
C      -0.526230      0.511645     -0.925368
C      -1.543949     -0.531454     -0.454378
O      -1.819605     -0.182749      0.891475
C      -0.711367     -0.218894      1.656746
H       2.463712      0.239080     -0.708056
H       2.316113     -0.155227      1.002791
H       1.537915     -1.178021     -0.205547
H       0.801308      1.768351      0.230478
H      -1.053341      1.447763     -1.113992
H      -0.068608      0.190981     -1.865110
H      -1.122663     -1.544085     -0.496116
H      -2.474812     -0.502140     -1.021745
H       0.042572      0.746501      1.353533
H      -0.120481     -1.122303      1.422992
