14
Extracted from Q-Chem output
C       1.959605     -0.131840     -0.015724
N       1.069143     -1.236801      0.300939
C       0.685180     -0.287546     -0.750122
C      -0.298446      0.820639     -0.557312
C      -1.774428      0.017189      0.139959
N      -0.770318      0.833743      0.802182
H       2.887456     -0.396115     -0.507972
H       2.024307      0.687756      0.693067
H       0.561489     -0.991985      1.147582
H       0.732455     -0.690012     -1.755422
H      -1.525592      0.269444     -1.029218
H      -1.687290     -1.045353      0.333342
H      -2.780798      0.424337      0.169087
H      -1.167256      1.739755      1.013394
