12
Extracted from Q-Chem output
C       1.058026     -0.488201     -0.242286
C       0.312198      0.805750      0.208061
C      -1.042325     -0.004401     -0.111161
O      -0.963906     -0.314693     -1.476848
C      -0.269072     -1.154438     -0.548788
C       0.070177      0.967837      1.615500
H       1.576248     -0.941991      0.600440
H       1.723454     -0.376160     -1.097839
H       0.406747      1.678046     -0.443759
H      -2.017620      0.101828      0.341401
H      -0.534540     -2.202529     -0.544235
H      -0.372273      1.973716      1.748030
