16
Extracted from Q-Chem output
C      -1.624953     -0.281759      0.910241
C      -1.215793      0.578863     -0.241426
C      -0.535143      1.716980     -0.129455
C       1.659738      0.423795     -0.383918
C       1.599168     -0.912369      0.092583
O       0.968546     -1.990701     -0.533777
H      -1.245532     -1.299041      0.791727
H      -1.254191      0.121132      1.853652
H      -2.714462     -0.349380      0.971270
H      -1.522445      0.243723     -1.230092
H      -0.292891      2.323939     -0.992675
H      -0.234620      2.104721      0.836466
H       1.470095      0.412700     -1.474012
H       2.729788     -0.825004     -0.148683
H       1.567591     -1.076574      1.168756
H       0.774327     -1.736795     -1.440111
