11
Extracted from Q-Chem output
C      -1.559259      0.163736      0.080328
C      -0.062073     -0.830324      0.212092
O      -0.341024     -0.136794      1.271033
C       1.233852     -0.392964     -0.437012
O       1.716082      0.864532     -0.041502
H      -2.358633     -0.543833      0.234130
H      -1.308323      0.337763     -0.970703
H      -1.717056      1.139793      0.542798
H       1.123591     -0.411331     -1.524130
H       1.939000     -1.201911     -0.182680
H       1.345887      1.034648      0.833429
