9
smiles: [C:3]([C:4](=[O:5])[H:9])([H:6])([H:7])[H:8].[O+:1]#[C-:2]
O        3.06904800      -1.34517500      -1.38680300
C        2.56158000      -0.34476800      -1.32576400
C       -0.73368700       0.89580300       0.29334300
C       -0.86792500      -0.58385300       0.49007300
O       -0.07265700      -1.39707400       0.10812400
H        0.17361300       1.13117700      -0.25952100
H       -0.71869800       1.39083000       1.26800700
H       -1.60972200       1.27412000      -0.23980100
H       -1.78141900      -0.90975500       1.03172900
