17
smiles: [C:1]([O:2][C:3](=[C:4]([H:12])[H:13])[H:11])([H:8])([H:9])[H:10].[C:5](=[C:6]([O:7][H:17])[H:16])([H:14])[H:15]
C        1.53756600       0.76952600       0.26883600
O        1.13775800      -0.39401200      -0.41950700
C        0.95508400      -1.50294900       0.32141400
C        1.10368700      -1.64541800       1.63379100
C       -2.19367600       0.60201800      -0.03424000
C       -1.96396200       1.04801400      -1.26073600
O       -0.89658700       0.76099600      -2.04126200
H        2.49827000       0.61850100       0.77158800
H        0.78797700       1.06383900       1.01026700
H        1.63916000       1.55258400      -0.47913300
H        0.65216300      -2.32867800      -0.31247400
H        0.91637300      -2.61384800       2.07430900
H        1.40304100      -0.84328000       2.29347000
H       -1.50868700      -0.06608200       0.47627600
H       -3.08817800       0.90534900       0.48928400
H       -2.64544900       1.71596100      -1.77461600
H       -0.30517000       0.16878700      -1.56899000
