9
Extracted from Q-Chem output
O       2.116102     -0.948591      0.719026
C       1.038122     -0.509717      0.484377
N       0.701690      0.875419      0.331736
C      -0.555994      1.144387      0.075958
C      -1.146590     -0.226329      0.050219
O      -0.094531     -1.181449      0.310415
H       1.430889      1.566725      0.427276
H      -1.586889     -0.441769     -0.925358
H      -1.917677     -0.333482      0.815650
