15
Extracted from Q-Chem output
C       1.973041      0.549803      0.428721
C       1.138342     -0.372637     -0.440034
O       0.486567     -1.306619      0.087730
C      -1.594352     -0.912340      0.457204
C      -1.941424      0.257858     -0.159686
H       2.337209      1.414851     -0.127746
H       2.831671     -0.008950      0.807781
H       1.387384      0.887328      1.284965
H       0.216392      0.628333     -0.946518
H       1.515150     -0.525675     -1.467007
H      -1.357243     -0.940946      1.510134
H      -1.756185     -1.866526     -0.020625
H      -2.074984      1.158718      0.429877
H      -2.469639      0.230614     -1.106864
H      -0.652741      0.635743     -0.716370
