17
Extracted from Q-Chem output
C       2.055307      0.310988      0.251759
C       0.810855     -0.525478      0.190465
O       1.131703     -1.773429     -0.322434
C      -0.555738      0.014116      0.081250
C      -0.842608      1.492945      0.140041
C      -1.644501     -0.785399     -0.585811
O      -0.037590     -0.548331      1.311529
H       1.847425      1.321996      0.591165
H       2.515518      0.352664     -0.735730
H       2.761377     -0.155611      0.939412
H      -0.127822      2.019214      0.768469
H      -1.839320      1.660179      0.555008
H      -0.818152      1.929310     -0.860790
H      -2.556332     -0.745183      0.013656
H      -1.376439     -1.830734     -0.728596
H      -1.866374     -0.362836     -1.567686
H       0.485423     -2.402915      0.005358
