15
Extracted from Q-Chem output
O      -2.207656     -0.703206      1.136671
C      -1.518494      0.023606      0.264438
C      -0.678707     -0.544314     -0.706594
C       0.174923      0.366460     -1.544499
C       0.926268     -0.266861     -0.444175
C       1.130629      0.409838      0.845356
C       2.312794      0.475001      1.370260
H      -1.863841     -1.602490      1.168837
H       0.129661      0.799599      1.241107
H      -1.830967      1.059337      0.251959
H      -0.860063     -1.569285     -1.007254
H       0.385971      0.048192     -2.557245
H      -0.051060      1.422507     -1.447195
H       1.602276     -1.077681     -0.693367
H       2.634558      1.123982      2.179580
