14
Extracted from Q-Chem output
C       1.998140     -0.497561      0.691662
C       1.017542      0.576304      0.795745
C      -0.932903      0.164985     -1.464141
C      -1.428066      0.407710     -0.043159
C      -0.348347      0.299637      0.992205
O      -0.531009      0.100686      2.194730
H       2.997653     -0.216929      1.022054
H       1.683908     -1.455177      1.119183
H       2.061808     -0.631510     -0.403822
H      -0.128078      0.856153     -1.726110
H      -1.736165      0.312947     -2.185615
H      -0.561157     -0.854377     -1.587831
H      -1.853378      1.411276      0.051170
H      -2.215907     -0.292039      0.242712
