15
smiles: [C:1](=[C:2]=[C:3]=[C:4]([H:11])[H:12])([H:8])[H:9].[C:5](=[O:6])([C:7]([H:13])([H:14])[H:15])[H:10]
C        2.55933200       0.11825600      -0.22585800
C        1.50157100      -0.65018400      -0.24228200
C        0.47899200      -1.39836400      -0.26361700
C       -0.57759700      -2.16831000      -0.28070900
C       -1.15792600       0.73821600       1.66358100
O       -1.77558700      -0.19972700       2.08591600
C       -1.50911700       1.49978100       0.42127300
H        3.33856200       0.01220100      -0.97201200
H        2.68876300       0.88066400       0.53388100
H       -0.25538400       1.09953400       2.20110800
H       -1.35788500      -2.06313400       0.46449900
H       -0.70538100      -2.93060100      -1.04085600
H       -2.39909400       1.08412400      -0.04706900
H       -1.67242000       2.55102100       0.67285600
H       -0.66636100       1.46711800      -0.27420800
