13
Extracted from Q-Chem output
C      -1.193247     -0.509639     -0.121787
C      -1.111661      1.013558      0.182386
C       0.019667      1.415663     -0.715386
N       1.131268      1.171741     -0.242494
C       1.838151      0.147832      0.078915
C       1.195174     -1.145821     -0.110687
N      -0.046010     -1.390671     -0.258289
H      -1.790736     -0.662922     -1.021404
H      -1.779103     -0.939979      0.697023
H      -2.066003      1.471627     -0.069484
H      -0.878669      1.189742      1.235122
H       2.834310      0.262961      0.484056
H       1.854347     -2.015642     -0.138981
