10
Extracted from Q-Chem output
O       1.481830      1.478719     -0.563967
C       0.750505     -0.894341      0.497515
C      -0.124545     -0.072909     -0.060855
O       0.109187      1.155202     -0.613299
C      -1.577460     -0.389241     -0.194147
O      -2.079385     -1.389847      0.236124
H       1.468768      2.248404      0.017663
H       0.375868     -1.832850      0.880520
H       1.801177     -0.660760      0.569748
H      -2.170560      0.377121     -0.728020
