10
Extracted from Q-Chem output
O       2.060632      0.467879      0.077810
C       0.924616     -0.318214      0.246073
C      -0.318819      0.397514     -0.197752
O      -0.296875      1.520541     -0.633548
C      -1.657131     -0.333442     -0.087516
O      -1.747552     -1.450180      0.331660
H       1.772625      1.315889     -0.282260
H       0.997194     -1.255160     -0.321114
H       0.788510     -0.608433      1.296440
H      -2.523200      0.263607     -0.429792
