7
Extracted from Q-Chem output
O      -0.948446     -1.530943      0.053364
C      -0.995357     -0.346279      0.061721
C       0.249412      0.553119     -0.030188
O       0.243695      1.721494     -0.000590
C       1.634136     -0.353277     -0.694291
N       1.739471     -0.289234      0.480046
H      -1.922870      0.246854      0.137109
