14
Extracted from Q-Chem output
C      -1.224590     -1.194723     -0.175168
C      -1.691304      0.096425     -0.291807
O      -0.283352      1.506276     -0.263770
C       0.826085      1.330227      0.316362
C       1.533386     -0.436957      0.057984
O       0.698212     -1.348486      0.323650
H      -1.409053     -1.749123      0.732376
H      -1.043176     -1.779440     -1.064901
H      -1.935896      0.488527     -1.267093
H      -2.177551      0.565157      0.550789
H       0.844221      1.363705      1.415963
H       1.703204      1.737007     -0.196202
H       2.279095     -0.233783      0.832668
H       1.870974     -0.335956     -0.984190
