17
Extracted from Q-Chem output
O       1.751690     -0.368088      0.846564
C       1.282453     -0.694041     -0.452121
C      -0.034812     -1.419965     -0.524332
C      -1.105389     -0.761899      0.342094
C      -1.188900      0.732213      0.049709
C       0.108898      1.459357      0.404940
C       1.350303      0.699877     -0.006888
H       0.166904      1.625858      1.484892
H       2.059191     -1.057640     -1.122905
H       0.115588     -2.463428     -0.233340
H      -0.356720     -1.428463     -1.571713
H      -0.868132     -0.919836      1.397659
H      -2.069968     -1.239857      0.157448
H      -1.398149      0.869945     -1.017125
H      -2.023927      1.184163      0.589726
H       0.124862      2.445904     -0.064238
H       2.186169      1.304415     -0.352438
