12
Extracted from Q-Chem output
O       1.651284     -0.310478     -0.501412
C       0.290840     -0.497643     -0.351016
C      -0.102598     -0.520233      1.205014
C      -1.280307      0.345949      1.219743
O       0.122958      1.365479     -1.804141
C      -0.468311      0.518495     -1.189179
H       1.760294      0.477440     -1.055472
H      -0.014259     -1.480941     -0.731292
H      -0.312844     -1.554467      1.475506
H       0.795581     -0.163440      1.714845
H      -0.899014      1.385680      1.283057
H      -1.566455      0.418882     -1.228727
