10
Extracted from Q-Chem output
N      -1.911253     -0.248011     -0.992452
C      -0.759498     -0.176776     -0.482505
N       0.206166     -1.187710     -0.285461
C       1.135092     -0.639189      0.401673
N       0.906824      0.661232      0.769177
N      -0.229836      1.028904      0.027858
H       1.679755      1.307036      0.683611
H      -2.097422     -1.201057     -1.283720
H       2.049314     -1.131794      0.709474
H      -0.890605      1.576951      0.558770
