14
Extracted from Q-Chem output
C      -1.861997      0.007166     -0.567662
C      -0.936680     -0.367883      0.580937
N       0.332454      0.334151      0.551960
C       1.325077     -0.044272     -0.286762
N       1.286294     -1.073482     -1.021740
C       3.354638      1.538076     -0.231508
N       2.425773      0.832196     -0.233413
H      -1.397087     -0.235973     -1.523337
H      -2.094647      1.073993     -0.553050
H      -2.800088     -0.545841     -0.494719
H      -0.718283     -1.436085      0.553619
H      -1.402551     -0.151379      1.543832
H       0.403347      1.242837      0.971200
H       2.148225     -1.195664     -1.536558
