14
Extracted from Q-Chem output
C      -1.840939      0.071861     -0.576454
C      -0.918969     -0.335817      0.563070
N       0.367954      0.342195      0.537398
C       1.329841     -0.040305     -0.316151
N       1.343279     -1.037050     -1.063081
C       2.445381      1.286853     -0.574089
N       2.926264      0.658244      0.305909
H      -1.387374     -0.167163     -1.538673
H      -2.052265      1.142449     -0.547726
H      -2.788765     -0.464343     -0.504190
H      -0.721904     -1.407896      0.526542
H      -1.373185     -0.117416      1.530812
H       0.463020      1.243457      0.966311
H       2.208254     -1.176156     -1.563122
