11
Extracted from Q-Chem output
O       0.358757      1.669213      0.972988
C       0.404552      0.718122     -0.027342
C       0.715865     -0.770942      0.249555
O      -0.054036     -1.336655     -0.779415
C      -0.926277      0.313070     -0.616723
N      -2.085465      0.050581     -0.685324
H      -0.161599      1.336144      1.709576
H       1.051610      1.091439     -0.820344
H       1.777430     -0.999367      0.138236
H       0.389330     -1.057127      1.261243
H      -1.456065     -1.023388     -0.730738
