15
Extracted from Q-Chem output
C      -1.785569      1.063483      0.507984
N      -0.329108      1.115885      0.481475
C       0.259084      0.216952     -0.467580
C       1.790787      0.169189     -0.552477
O       1.769788     -1.266622     -0.327592
C       0.410725     -1.263944     -0.141356
N      -0.359694     -2.178328      0.218970
H      -2.186556      0.062269      0.704390
H      -2.151449      1.748122      1.273357
H      -2.173356      1.405807     -0.454216
H       0.036935      0.927404      1.406065
H      -0.215199      0.361486     -1.440488
H       2.303557      0.683019      0.261636
H       2.246395      0.412809     -1.511031
H       0.140042     -3.048313      0.390283
