15
Extracted from Q-Chem output
C      -1.804976      1.080602      0.569505
N      -0.357460      1.078130      0.457770
C       0.170745      0.179406     -0.518047
C       1.695684     -0.024640     -0.378542
O       1.735502     -1.124745      0.495380
C      -0.023055     -1.297983     -0.240115
N      -0.164140     -2.473985     -0.347851
H      -2.234107      0.102462      0.831413
H      -2.102925      1.800139      1.331371
H      -2.242643      1.401249     -0.378419
H       0.081105      0.900688      1.352588
H      -0.224842      0.420791     -1.509358
H       2.143826      0.870165      0.063057
H       2.166996     -0.215930     -1.351842
H       0.969899     -2.316979      0.059193
