15
Extracted from Q-Chem output
O       0.044811     -0.740433     -1.505118
C      -0.301777     -0.276018     -0.236212
C       0.800340     -0.411915      0.783331
C       2.042138      0.358038      0.428840
O       2.212986      0.933604     -0.613972
C      -1.713703     -0.519606      0.162920
C      -1.249193      0.882216     -0.147287
H       0.729902     -0.147234     -1.833669
H       0.473796     -0.087859      1.776731
H       1.095678     -1.463521      0.891360
H       2.838458      0.363032      1.200807
H      -1.925048     -0.780385      1.192295
H      -2.336958     -1.009886     -0.572294
H      -1.572504      1.314594     -1.084195
H      -1.138925      1.585372      0.668712
