13
Extracted from Q-Chem output
C      -0.716151      1.488155      0.139663
C      -0.134877      0.125865      0.145584
N      -0.902605     -0.904614     -0.308770
O      -0.450581     -2.130570      0.289917
C       1.304324     -0.134885      0.290095
O       1.165395     -0.005721     -1.122285
H      -1.469244      1.573901     -0.643022
H      -1.218950      1.630463      1.100749
H       0.048770      2.251586      0.016206
H      -1.171688     -2.724135      0.074793
H       1.596912     -1.120210      0.641864
H       1.902216      0.666688      0.722172
H       0.036656     -0.705330     -1.190956
