17
smiles: [C:1](/[C:2](=[C:4](/[C:5]([C:6](=[O:7])[H:17])([H:15])[H:16])[H:14])[H:11])([H:8])([H:9])[H:10].[O:3]([H:12])[H:13]
C       -2.14625400      -1.18031000      -0.15319100
C       -0.65833100      -1.23782900      -0.28657200
O       -1.21790800       2.31164700       0.14061100
C        0.19426100      -0.50232100       0.41083800
C        1.68015700      -0.57495600       0.26930300
C        2.35461100       0.75513800       0.04784400
O        1.79916200       1.81777600       0.04075800
H       -2.55134900      -2.15219000       0.14054400
H       -2.44853800      -0.44422200       0.59255500
H       -2.61296200      -0.91401400      -1.10490400
H       -0.26659300      -1.94159100      -1.01954100
H       -0.31834600       2.05939500      -0.07159600
H       -1.21274300       3.26905300       0.17471600
H       -0.18269200       0.21543400       1.13419700
H        1.97594600      -1.24086300      -0.54842800
H        2.14619400      -0.99880100       1.17005200
H        3.45376100       0.69470600      -0.10293800
