14
Extracted from Q-Chem output
O       0.189286     -1.868796      0.537883
C       1.738732      1.149735     -0.993817
C       0.895426      0.958476      0.007294
C      -0.473905      0.372327     -0.131711
C      -0.704718     -0.838164      0.775800
O      -2.007900     -1.353862      0.597253
H       0.068070     -2.169570     -0.367626
H       1.479693      0.880525     -2.012752
H       2.718963      1.581924     -0.835062
H       1.196894      1.238198      1.014293
H      -0.662659      0.072139     -1.167578
H      -1.221154      1.134199      0.123627
H      -0.545084     -0.559937      1.825223
H      -2.638920     -0.631452      0.612908
