8
Extracted from Q-Chem output
O       0.102572      1.209466     -0.463867
C      -0.635055      0.441301      0.444249
C      -0.448054     -0.839137      0.674403
C       1.037383      0.617923     -1.122408
N       1.880131      0.121067     -1.727840
H      -1.370965      1.075724      0.914194
H       0.312887     -1.416775      0.164203
H      -1.077052     -1.335274      1.398855
