17
Extracted from Q-Chem output
C      -2.512649      0.731140     -0.009358
C      -1.456696     -0.317543     -0.126881
N      -0.502471      0.030599     -0.939069
C       0.680984     -0.781777     -1.182106
C       1.714046     -0.696437     -0.076184
C       1.753831      0.431526      0.874013
N       1.317865     -0.893250      1.303837
H      -3.475410      0.294224     -0.284405
H      -2.346450      1.639618     -0.612578
H      -2.608759      1.014917      1.041436
H       0.356677     -1.816959     -1.293954
H      -0.510352      0.936671     -1.412628
H       1.127679     -0.460794     -2.125792
H       2.649873     -1.179454     -0.343339
H       2.701638      0.763791      1.280705
H       1.005962      1.211002      0.770080
H       0.300191     -0.936588      1.357187
