16
smiles: [C:1](=[N:2][H:11])([H:8])[H:10].[C:3](=[C:4]([O:5][H:9])[O:6][C:7]([H:14])([H:15])[H:16])([H:12])[H:13]
C       -2.83180500       0.68215700       0.03574400
N       -2.38571400      -0.33123900      -0.56669500
C        0.19883800      -0.34026600       1.77793200
C        0.89265200      -0.40381800       0.64351600
O        0.37878300      -0.68444100      -0.57740100
O        2.21849400      -0.22339300       0.61136500
C        2.80563000       0.20968200      -0.60806600
H       -3.87318000       1.01823700       0.00086100
H       -0.57502000      -0.75080800      -0.50104700
H       -2.14911600       1.27999500       0.64052900
H       -3.12387500      -0.79799200      -1.09200600
H       -0.85529000      -0.57650500       1.79894100
H        0.69922200      -0.07954300       2.69657800
H        3.85607000       0.37737100      -0.38179400
H        2.35318900       1.14201100      -0.95397800
H        2.71210800      -0.54722100      -1.38698200
