9
Extracted from Q-Chem output
O      -1.869243     -0.263907     -0.125425
C      -0.546159     -0.086994     -0.103969
N       0.326698     -1.077280      0.061546
N       1.622628     -0.422500      0.052706
N       1.442106      0.861021     -0.093834
C       0.146956      1.104439     -0.261580
H      -2.059909     -1.203790     -0.049060
H       1.095409     -1.003301      1.019360
H      -0.234327      2.091200     -0.468196
