13
Extracted from Q-Chem output
C      -0.848678     -0.402367      1.295381
C      -0.196718     -1.033676      0.094390
N      -0.601348      0.028813     -1.366296
C       0.700187     -0.133657     -0.692441
C       1.200366      1.149573     -0.097606
O       2.366075      1.363842      0.086361
H      -1.106400      0.656325      1.215715
H      -0.107900     -0.502849      2.097668
H      -1.730661     -0.963800      1.599894
H      -1.118814     -0.936495     -0.898886
H      -0.499242     -0.442211     -2.267052
H       1.482808     -0.625532     -1.266483
H       0.424908      1.894385      0.163394
