16
smiles: [C:1](=[O+:2][C:3]([C:5]([H:14])([H:15])[H:16])=[C:6]=[N-:7])([H:8])[H:10].[C:4]([H:9])([H:11])([H:12])[H:13]
C        2.11994000       0.40043200      -0.00614200
O        1.02359300       1.07163100      -0.02599600
C       -0.04994500       0.86325700       0.69817300
C       -0.90750900      -1.18559900      -1.88846700
C       -0.07046500      -0.25013900       1.66373400
C       -1.10578600       1.76144400       0.46314600
N       -1.99774600       2.47595800       0.30211200
H        2.24055800      -0.44217000       0.65770200
H        0.14602800      -1.04959000      -1.64886300
H        2.87456300       0.74826500      -0.69108300
H       -0.99814400      -1.72827800      -2.82818200
H       -1.38631100      -0.21212700      -1.98308000
H       -1.39090800      -1.75125800      -1.09340300
H       -1.02538200      -0.28257900       2.18221300
H        0.72968800      -0.14157900       2.41004700
H        0.08861500      -1.21520100       1.16144400
