16
Extracted from Q-Chem output
C       1.775113      0.065180     -0.543851
O       0.976144      1.050905     -0.069727
C      -0.161643      0.675640      0.476528
C      -0.657594     -0.781247     -1.374981
C      -0.214775     -0.343133      1.570889
C      -1.162385      1.695005      0.458915
N      -2.031450      2.448338      0.418413
H       2.103333     -0.678411      0.180383
H       0.649667     -0.547904     -1.117118
H       2.562364      0.476005     -1.166030
H      -0.346451     -1.531618     -2.106863
H      -1.149795      0.036586     -1.895396
H      -1.342898     -1.258522     -0.679969
H      -1.253907     -0.579031      1.796161
H       0.247004      0.053254      2.481666
H       0.292071     -1.266110      1.295370
