14
Extracted from Q-Chem output
C      -1.907205      0.069337      0.665145
N      -0.548938     -0.017050      0.195738
C       0.154541     -1.200752     -0.057197
C       1.388679     -0.959988     -0.489456
C       1.580211      0.525848     -0.550687
C       0.240115      1.077308     -0.078702
O      -0.092316      2.232885      0.040672
H      -2.137415      1.123651      0.808267
H      -2.025629     -0.453278      1.616731
H      -2.605917     -0.350395     -0.062409
H      -0.334908     -2.149915      0.109305
H       2.124992     -1.703310     -0.748425
H       2.372647      0.895338      0.104322
H       1.791715      0.902323     -1.554217
