14
Extracted from Q-Chem output
C      -1.865998      0.094228      0.630107
N      -0.460562     -0.088934      0.350428
C       0.150651     -1.297726     -0.039318
C       1.372311     -1.050970     -0.549456
C       1.606309      0.386203     -0.474707
C       0.395601      0.903903      0.064858
O       0.154814      2.161739     -0.124321
H      -2.055700      1.161754      0.722722
H      -2.138021     -0.399653      1.563647
H      -2.477232     -0.307128     -0.180123
H      -0.379819     -2.228379      0.090139
H       2.076172     -1.803265     -0.868707
H       2.559590      0.817979     -0.195433
H       1.061883      1.650250     -0.989836
