10
Extracted from Q-Chem output
O       2.096305     -0.290519     -0.059296
C       0.850400      0.153944     -0.140803
C      -0.368886     -0.577231      0.265488
N      -1.323697     -0.150445     -0.780021
C      -0.962186      1.039680     -0.062546
N       0.406698      1.299926     -0.489257
H       2.683494      0.415803     -0.354719
H      -0.525594     -1.509006      0.793216
H      -2.254419     -0.447626     -0.488464
H      -0.792875      0.360182      1.108571
