12
Extracted from Q-Chem output
O      -0.488046     -1.528646      0.006596
C      -0.436728     -0.517211      0.949102
C      -0.792720      0.824388      0.353506
C       0.174800      0.899699     -0.841907
C       1.361879      0.098835     -0.411238
C       0.838962     -1.031141      0.316603
H      -0.680197     -0.790524      1.971765
H      -0.589033      1.625593      1.065576
H      -1.849076      0.870347      0.081917
H      -0.250441      0.402265     -1.725578
H       0.430024      1.917446     -1.131533
H       1.461935     -1.761648      0.814964
