12
smiles: [H:8][H:12].[O+:1]#[C:2][C@@:3]1([H:9])[C:4]([H:10])([H:11])[C:5]1=[C:6]=[N-:7]
O       -1.34895000      -1.31200700       1.24247500
C       -0.76139900      -0.36379200       1.04153000
C       -0.07173100       0.74724000       0.64860500
C        1.47797300       0.53687100       0.68507700
C        0.82961000       0.51773300      -0.61160800
C        0.67266200      -0.72144700      -1.27796800
N        0.53929100      -1.70350600      -1.87237300
H       -2.78702300       0.07035100      -1.41914700
H       -0.54501400       1.69943800       0.85568200
H        1.84248900      -0.36394600       1.17980300
H        1.95793300       1.45198300       1.01696800
H       -2.17998900      -0.23796600      -1.72053700
