19
smiles: [C:1]1([H:9])([H:10])[C@@:2]2([H:11])[C:3]([H:12])([H:13])[C:4]([H:14])([H:15])[O:5][C@@:6]12[C:7]([H:17])([H:18])[H:19].[H:8][H:16]
C       -0.30442900      -1.30357900       0.29680500
C       -0.75022300       0.03398400      -0.24998100
C       -1.48952400       0.95926400       0.70291200
C       -0.35134600       1.52356800       1.56110000
O        0.68730100       0.55271000       1.53560200
C        0.62665500      -0.13277200       0.30636500
C        1.89685000      -0.09121600      -0.48653800
H        0.26366400      -1.89383700      -3.39205600
H       -0.71033200      -1.62262300       1.24895700
H       -0.11734200      -2.09766900      -0.41578400
H       -0.91013600       0.13037100      -1.31607100
H       -2.21849200       0.41682000       1.30890900
H       -2.01947800       1.74932700       0.16992700
H       -0.62558900       1.69402600       2.60271900
H        0.01661700       2.46826200       1.13989700
H       -0.45256800      -2.00912300      -3.22413700
H        2.70974100      -0.56119800       0.07022300
H        1.77897200      -0.62304200      -1.43192400
H        2.18109000       0.94077000      -0.70221900
