19
Extracted from Q-Chem output
C      -0.804878     -1.634421     -0.409191
C      -0.716607     -0.208161     -0.197501
C      -1.177035      0.529432      1.078321
C      -0.495339      1.874237      0.863174
O       0.810277      1.477898      0.406909
C       0.704224      0.336019     -0.269708
C       1.967664     -0.444889     -0.235448
H       0.128798     -1.057748     -1.980888
H      -0.205915     -2.307914      0.192055
H      -1.685142     -2.047228     -0.879735
H      -1.260107      0.289999     -1.008753
H      -0.798724      0.041141      1.978617
H      -2.262370      0.592901      1.139195
H      -0.352264      2.498017      1.743337
H      -0.997072      2.453084      0.081247
H       0.493311     -0.353016     -2.180391
H       2.149848     -0.768937      0.798366
H       1.909261     -1.326503     -0.865913
H       2.803503      0.190133     -0.528985
