14
Extracted from Q-Chem output
C       2.002099     -0.047847     -0.578472
C       0.539483     -0.337367     -0.484622
O      -0.145819      0.794610     -0.189869
C      -0.004256     -1.539717     -0.670933
C      -1.545923      0.694384     -0.030608
O      -2.050479      1.948790      0.241811
H       2.369522      0.348992      0.369931
H       2.561128     -0.947725     -0.826711
H       2.185607      0.708154     -1.344162
H      -1.064959     -1.733533     -0.605717
H       0.638144     -2.375431     -0.906350
H      -1.756357     -0.027564      0.771183
H      -2.006154      0.356264     -0.963132
H      -1.690288      2.252192      1.078350
