15
Extracted from Q-Chem output
O       2.000720     -0.020004     -0.193108
C       0.808409      0.402297      0.444015
C       0.122976      1.397229     -0.495465
C      -0.785143      0.694004     -1.427314
O      -1.152789     -0.375903      1.523754
C      -0.842151     -0.683940     -0.883833
C      -0.219498     -0.729653      0.517972
H       2.484316     -0.594941      0.402397
H       1.010232      0.812170      1.438532
H      -0.632669      1.972641      0.069621
H       0.781593      2.135616     -0.952987
H      -1.918068     -0.949208      1.456643
H      -1.800984     -1.193237     -1.004081
H      -0.157797     -1.171111     -1.602631
H       0.255183     -1.690944      0.751670
