10
Extracted from Q-Chem output
C      -1.479832     -0.188315     -0.016393
C       0.013934     -0.515658      0.047692
C       0.689810      0.713276      0.308223
N       2.591191      0.352460      0.636589
N       2.595815      0.162432     -0.453942
O       0.432510     -1.650289     -0.004038
H      -1.968686     -0.691079      0.817125
H      -1.861210     -0.595524     -0.952803
H      -1.704657      0.878789      0.035753
H       0.702581      1.513322     -0.426241
