14
Extracted from Q-Chem output
C       2.334999      0.110691      0.120652
C       1.404014     -0.168519     -0.825757
C       0.295219     -0.269929     -1.413759
C      -0.818279      0.193681     -0.595800
C      -1.825924     -0.849268     -0.192454
O      -0.250932      0.734864      0.839873
H       2.736877     -0.690017      0.734248
H       0.871362      0.541742      0.705893
H       2.966129      0.988500      0.013777
H      -1.283129      1.100552     -0.985259
H      -1.321274     -1.688866      0.285829
H      -2.580436     -0.446354      0.483218
H      -2.311103     -1.218588     -1.096307
H      -0.376117      1.686686      0.895544
