12
Extracted from Q-Chem output
C      -1.102023      1.044356     -0.631645
C      -0.265527      0.176018      0.292453
N       0.195756     -1.052298     -0.374256
C       1.485153     -1.071474     -0.312966
C       2.036367      0.130768      0.400271
N       0.949470      0.802144      0.715650
H      -0.517057      1.324006     -1.508682
H      -2.015485      0.537470     -0.948528
H      -1.374601      1.952687     -0.097714
H      -0.845695     -0.127342      1.171998
H      -0.398156     -1.744822     -0.803766
H       2.039621     -1.896434     -0.749347
