12
Extracted from Q-Chem output
C      -1.163788      0.961066     -0.474781
C      -0.343719     -0.148664      0.104108
N       0.067213     -1.231214     -0.709347
C       1.315499     -0.984548     -0.068635
C       2.226684      0.175596     -0.335075
N       1.241390      0.679773      0.301086
H      -0.754065      1.303309     -1.424415
H      -2.184841      0.602154     -0.632387
H      -1.185221      1.802312      0.216658
H      -0.660376     -0.477076      1.089973
H       0.092012     -0.983612     -1.693247
H       1.537033     -1.624018      0.779530
