15
smiles: [C:1]([C:2](=[O:3])[C:4]1=[C:6]([H:12])[C:7]1([H:14])[H:15])([H:8])([H:9])[H:10].[O:5]([H:11])[H:13]
C        1.67822000       0.10299000      -1.64143800
C        0.95017000      -0.13394700      -0.34464100
O        1.36683600      -0.86099500       0.52265400
C       -0.32613300       0.58150300      -0.18355200
O       -0.75939300      -1.85189500       2.32857800
C       -1.20005400       1.41023700      -0.64795600
C       -1.50022700       0.83385600       0.70616700
H        2.61035900      -0.45719100      -1.64921500
H        1.05035600      -0.20637800      -2.47977600
H        1.88133300       1.16874000      -1.76559500
H       -0.03429500      -1.53196600       1.79040200
H       -1.53392000       2.07610600      -1.42474600
H       -0.46487100      -2.69417300       2.67767100
H       -1.37855500       1.45790500       1.58893300
H       -2.27104900       0.07234600       0.80280100
