15
Extracted from Q-Chem output
C       1.558508      0.362927     -1.143061
C       0.968209     -0.494375     -0.064786
O       1.529756     -1.493915      0.360637
C      -0.342426     -0.153356      0.471927
O      -0.592124     -1.062457      1.676842
C      -1.652188     -0.145305     -0.203029
C      -1.157472      1.094113      0.478782
H       2.163789     -0.255533     -1.802769
H       0.795566      0.893038     -1.710872
H       2.210505      1.102116     -0.671848
H       0.070296     -1.781735      1.526143
H      -1.665988     -0.154574     -1.288843
H      -1.519991     -1.247469      1.207721
H      -0.749338      1.937867     -0.077028
H      -1.570570      1.379644      1.441965
