17
Extracted from Q-Chem output
O       2.411510      0.357551     -0.134579
C       1.837766     -0.619374      0.276217
C       0.653240     -1.272781     -0.371174
C      -0.637537     -0.986557      0.424413
C      -1.405544      0.265675     -0.000115
C      -0.638124      1.586296      0.010000
O       0.161120      1.779319     -1.135827
H       1.046326      1.430657     -0.972278
H       2.174254     -1.087184      1.224589
H       0.846477     -2.349375     -0.366663
H       0.562570     -0.937468     -1.404815
H      -0.397022     -0.923801      1.492582
H      -1.301796     -1.846909      0.322737
H      -2.268747      0.365068      0.665637
H      -1.804359      0.127931     -1.009591
H      -0.040705      1.673175      0.928088
H      -1.359730      2.406850      0.025390
