12
Extracted from Q-Chem output
N      -2.591508     -0.985325     -0.028336
C      -1.311034     -0.608453     -0.135854
C      -0.172392     -0.246672     -0.274437
C       1.189038      0.252215     -0.416135
O       2.154226     -0.498949      0.300290
C       1.227024      1.698152      0.085648
O       1.217046      2.656553     -0.627832
H      -3.021675     -0.883413      0.874875
H      -2.863081     -1.815269     -0.527294
H       1.474292      0.263850     -1.471471
H       1.691959     -1.084535      0.902464
H       1.279150      1.781568      1.191361
