12
Extracted from Q-Chem output
N      -2.203030     -0.337130     -0.476367
C      -0.892133     -0.034258     -0.172717
C       0.249175     -0.771424     -0.168177
C       1.287214      0.162696      0.161509
O       2.609907     -0.100541      0.293024
C       0.712601      1.370521      0.330249
O      -0.647880      1.244788      0.121753
H      -2.869390      0.274273     -0.032224
H      -2.437133     -1.308118     -0.356821
H       0.345574     -1.825640     -0.373008
H       2.767602     -1.022278      0.086191
H       1.077493      2.347110      0.586588
