12
Extracted from Q-Chem output
N      -2.286115     -0.297265     -0.377204
C      -0.933646     -0.135814     -0.117619
C       0.098524     -1.019362     -0.004035
C       1.235141     -0.055639      0.102102
O       2.498121     -0.381200      0.497930
C       0.724311      1.266053      0.187510
O      -0.563751      1.207984     -0.011535
H      -2.893839      0.128743      0.307593
H      -2.499680     -1.275756     -0.490369
H       1.064065     -0.110436     -1.048183
H       2.503864     -1.339908      0.584667
H       1.180926      2.234456      0.317085
