16
Extracted from Q-Chem output
C       2.010841     -0.335589      0.849421
C       0.608468      0.093853     -1.177677
C      -0.406185      0.030992     -0.168566
O       0.175225     -0.642051      1.060226
C      -1.360435      1.099505      0.218291
C      -1.878354     -0.239602     -0.264505
H       2.547177     -0.874374      0.086781
H       2.099943     -0.756282      1.848512
H       2.144928      0.733228      0.808808
H       0.642241     -0.712092     -1.907492
H       0.852785      1.071598     -1.579453
H       0.128491     -1.589951      0.876972
H      -1.487578      1.314247      1.271642
H      -1.440098      1.953844     -0.440829
H      -2.365112     -0.865716      0.473555
H      -2.295136     -0.301397     -1.260497
