13
Extracted from Q-Chem output
O       1.407709      1.793219      0.527109
C       0.828529      0.650424      0.080522
C       1.351093     -0.550974     -0.163533
O       0.437158     -1.446271     -0.675990
C      -0.808124     -0.795675     -0.673545
C      -1.397060     -0.373655      0.629728
C      -0.621658      0.625926     -0.201561
H       2.353362     -0.927704     -0.029210
H       2.362003      1.694293      0.521664
H      -1.440957     -1.092067     -1.498220
H      -0.945702     -0.724151      1.548587
H      -2.473879     -0.269827      0.645400
H      -1.104618      1.489568     -0.639270
