13
smiles: [N:1]#[C:2][H:8].[O:3]([C:4]1([H:9])[C:5]([H:10])([H:11])[C:6]1([H:12])[H:13])[H:7]
N        3.48738900       1.42946300       1.49626500
C        2.80528600       0.85973300       0.77647800
O        0.76362200      -0.56279100      -1.00073800
C       -0.49267500       0.04458700      -1.01634800
C       -1.69188500      -0.74337000      -0.58833800
C       -1.10435300       0.31580600       0.30953500
H        0.81755400      -1.16496300      -1.74519700
H        2.16836100       0.32722700       0.10420500
H       -0.62914500       0.78977700      -1.79581900
H       -2.64035200      -0.55116600      -1.07289500
H       -1.52002300      -1.77416200      -0.30645300
H       -0.54446600      -0.02565800       1.16977300
H       -1.64691700       1.24109300       0.44878100
