13
Extracted from Q-Chem output
N       2.984885      0.307518     -0.731331
C       2.291273     -0.289457      0.041610
O       0.826191      0.581326     -0.069519
C      -0.283034     -0.052103     -0.639876
C      -1.320347     -0.596442      0.286186
C      -1.598149      0.639693     -0.526208
H       1.771105      0.935575     -0.791245
H       2.165741     -1.076517      0.771408
H      -0.062988     -0.600695     -1.552158
H      -1.813549     -1.520894      0.016894
H      -1.144419     -0.458858      1.344810
H      -1.599235      1.585458     -0.001703
H      -2.283775      0.572920     -1.360268
