15
Extracted from Q-Chem output
C       1.825445      0.288751      0.113799
C       0.334805      0.149564      0.115153
C      -0.585473      0.424045      1.292349
C      -1.295531     -0.685398      1.108498
O      -1.664785      0.639953     -1.438643
C      -0.495962     -0.044938     -1.135494
C      -0.491460     -1.122467     -0.096440
H       2.261398     -0.203981      0.985876
H       2.263257     -0.159618     -0.780304
H       2.124951      1.339875      0.140918
H      -0.711574      1.297205      1.919857
H      -1.436862      1.535340     -1.695037
H      -2.218913     -1.062489      1.527090
H       0.111051     -0.285007     -2.010977
H      -0.107264     -2.113504     -0.298097
