15
Extracted from Q-Chem output
C       1.899595      0.263013      0.148741
C       0.412438      0.132570      0.099583
C      -0.492250      0.642872      1.209274
C      -1.647119     -0.383087      0.186003
O      -1.703526      0.180534     -1.131630
C      -0.313805     -0.134383     -1.249586
C      -0.336496     -1.133158     -0.147213
H       2.277274     -0.092825      1.108913
H       2.377571     -0.317063     -0.644402
H       2.200067      1.306272      0.030179
H      -0.640668      1.742429      1.299677
H      -1.537238      0.828656      0.616732
H      -2.587755     -0.741249      0.589061
H       0.128173     -0.119339     -2.236052
H      -0.090314     -2.179521     -0.037981
