17
Extracted from Q-Chem output
C       1.703048      1.014983      1.456545
O       1.177280     -0.666413     -0.877924
C      -0.036937     -1.362399     -1.208180
C      -0.869871     -0.095924     -0.968009
C      -2.057315     -0.170340     -0.034675
C       0.451334      0.481194     -0.439037
O       0.447294      0.637198      0.934905
H       1.576706      1.151324      2.529067
H       2.045359      1.958016      1.012374
H       2.454520      0.242220      1.273500
H      -0.239263     -2.175665     -0.504023
H      -0.011586     -1.756115     -2.226166
H      -1.144808      0.383890     -1.908223
H      -2.449593      0.824305      0.183272
H      -2.860035     -0.755815     -0.488270
H      -1.782246     -0.634697      0.912212
H       0.850132      1.387724     -0.915683
