11
Extracted from Q-Chem output
O       0.057610      1.521313      0.337247
C      -1.108568      0.956833      0.000834
C      -1.237054     -0.341440     -0.300751
C      -0.059507     -1.153907     -0.257984
C       1.125584     -0.612935      0.076691
C       1.244494      0.797079      0.400833
O       2.238417      1.385211      0.710244
H      -1.919633      1.673131      0.003997
H      -2.202676     -0.743939     -0.567286
H      -0.128373     -2.209017     -0.496504
H       2.040962     -1.185657      0.121184
