17
Extracted from Q-Chem output
C       2.318237     -0.093678      0.036498
C       1.125804      0.767344      0.431828
C      -0.116815     -0.056452      0.696802
O      -1.156085      0.806350      1.214399
C      -2.313010      0.449680      0.602190
C      -2.188044     -0.441224     -0.369648
C      -0.725507     -0.762719     -0.531617
H       2.129929     -0.642437     -0.889138
H       2.550380     -0.825608      0.814086
H       3.207583      0.518128     -0.118637
H       0.899399      1.494264     -0.353997
H       1.358104      1.340004      1.333210
H       0.089672     -0.792140      1.483672
H      -3.197566      0.945776      0.976196
H      -2.990165     -0.823750     -0.980430
H      -0.327442     -0.357586     -1.469588
H      -0.513405     -1.833167     -0.526254
