14
Extracted from Q-Chem output
C       1.656060      0.588621      0.544845
C       0.472521      0.829954     -0.324257
C      -0.405957     -1.079434     -0.920623
C      -1.470310     -0.438503     -0.075088
O      -1.079464     -0.289749      1.275151
C      -0.850246      0.802172      0.358570
H       1.512403     -0.138810      1.350286
H       1.817030      1.565157      1.022575
H       2.559837      0.363043     -0.021162
H       0.352437     -0.145142     -1.236826
H       0.116172     -1.915091     -0.462354
H      -0.710096     -1.298039     -1.945235
H      -2.526727     -0.596825     -0.258751
H      -1.356872      1.725342      0.614378
