19
smiles: [C:1]([C:2]([C:3]([C@@:4]1([H:15])[C:5]([H:16])([H:17])[C:6]1=[O:7])([H:13])[H:14])([H:11])[H:12])([H:8])([H:9])[H:10].[H:18][H:19]
C       -2.99880300      -0.01418000      -0.12421800
C       -1.57034700       0.49384100       0.01363800
C       -0.56037600      -0.63583300       0.18863600
C        0.86062000      -0.13369900       0.30048300
C        2.05867300      -1.07362000      -0.05291000
C        1.67224400       0.05861100      -0.90166200
O        1.85378300       0.66547900      -1.91118200
H       -3.10014400      -0.67139800      -0.99128400
H       -3.30425600      -0.58168700       0.75842400
H       -3.70337300       0.80935600      -0.24993400
H       -1.50135100       1.17349200       0.86925700
H       -1.29501500       1.08209500      -0.86659300
H       -0.63198100      -1.31997100      -0.66419500
H       -0.80639400      -1.22595400       1.07814300
H        1.05290700       0.55145600       1.12235200
H        1.82284600      -2.07519800      -0.39759400
H        2.95549100      -0.99996000       0.55099000
H        3.75716700       1.89327400       0.98966700
H        3.60995000       2.01590200       0.27009900
