19
Extracted from Q-Chem output
C       2.148987      0.129386      0.789477
C       0.971993      0.188501     -0.121181
C      -0.015214     -0.921811     -0.149408
O      -0.293188     -1.358950      1.154923
C      -1.239999     -0.572210     -0.979997
C      -1.712729      0.823190     -0.551984
O      -0.624620      1.670760     -0.611383
H       2.657046      1.089841      0.832175
H       1.882891     -0.199980      1.789012
H       2.849573     -0.590758      0.340647
H       1.195783      0.568115     -1.110159
H       0.266312      1.390586      1.360769
H       0.557081     -1.700867     -0.695485
H      -1.010640     -1.993463      1.119518
H      -2.016861     -1.335088     -0.865247
H      -0.952814     -0.552236     -2.034980
H      -2.116585      0.756462      0.471643
H      -2.529436      1.155056     -1.205462
H      -0.135236      1.665877      0.582154
