12
Extracted from Q-Chem output
C       2.023543     -0.048183     -0.003514
C       0.561073     -0.278562      0.095511
N      -0.015299     -1.367803      0.494360
N      -1.383789     -1.177192      0.439640
C      -1.568151      0.025043      0.007612
O      -2.731400      0.643166     -0.204936
N      -0.394226      0.655689     -0.230091
H       2.322087      0.185876     -1.027390
H       2.531363     -0.957801      0.309404
H       2.342779      0.771012      0.643846
H      -3.427684      0.018213      0.023378
H      -0.269923      1.590846     -0.572134
