12
Extracted from Q-Chem output
O      -0.731533     -0.088101     -1.503980
C      -1.284734     -0.479293     -0.447365
C      -0.633761     -0.244832      0.774147
C       0.395124      0.841145      0.489765
C       1.113514      0.163727     -0.644440
O       1.402763     -1.038430     -0.403775
H      -2.203493     -1.072185     -0.517263
H       0.489001     -1.175391      0.365933
H      -1.120275     -0.379185      1.728951
H      -0.029811      1.798655      0.186278
H       1.097972      0.989334      1.313071
H       1.609750      0.674338     -1.464767
