15
Extracted from Q-Chem output
C       2.276085     -0.647420      0.113976
C       1.501827      0.572481      0.359995
C       0.253775      0.606749     -0.427426
C      -0.825561      0.078179      0.551474
C      -2.215486      0.124081     -0.070481
H       1.750206     -1.507801     -0.327135
H       2.924387     -0.945387      0.938087
H       2.956850     -0.256365     -0.666674
H      -0.584587     -0.948937      0.840053
H      -0.020194      1.628019     -0.703413
H       0.247421     -0.032132     -1.325374
H      -0.802187      0.674576      1.465953
H      -2.488679      1.145659     -0.342333
H      -2.266558     -0.487686     -0.973515
H      -2.965037     -0.247191      0.630619
