16
smiles: [C:1]1([H:8])([H:9])[C:2]([H:10])=[N:7]1.[C:3]1([H:11])=[C:6]([H:15])[C:5]([H:14])([H:16])[C:4]1([H:12])[H:13]
C        2.31456300       0.85231700      -0.36005600
C        2.03229000      -0.43282400       0.23736700
C       -1.20020500      -0.43318500       1.18493300
C       -1.46167900      -1.10035500      -0.14608300
C       -1.37441500       0.33619200      -0.74877200
C       -1.12401500       0.79222500       0.67060000
N        2.01500100      -0.49489800      -1.00440500
H        3.33557200       1.21095300      -0.44221000
H        1.53947900       1.60784700      -0.43825800
H        1.89106700      -1.08129200       1.09038400
H       -1.10997400      -0.82702100       2.19005400
H       -0.68849500      -1.79056900      -0.49028200
H       -2.43521700      -1.58409700      -0.25084300
H       -0.55257900       0.49164600      -1.45088500
H       -0.94961400       1.77100800       1.10076400
H       -2.29818300       0.69803100      -1.20530000
