13
smiles: [C:2]1([H:8])=[C:3]([H:10])[C@@:4]2([H:11])[N:5]([H:12])[C@@:6]12[H:13].[O:1]([H:7])[H:9]
O        2.15309500       0.04827500       1.67099900
C        0.36322400       0.09419800      -1.28934300
C       -0.10723200      -1.07023400      -0.83954600
C       -1.24715200      -0.40033800      -0.09376500
N       -0.61743300       0.55339900       0.85169500
C       -0.72896200       0.88329200      -0.58998800
H        1.22798700       0.23657000       1.50791900
H        1.26982900       0.39328700      -1.79754800
H        2.40461600      -0.59029900       1.00265700
H        0.26968100      -2.08402800      -0.84063900
H       -2.27639000      -0.70984200       0.01547600
H       -1.36656600       1.04393500       1.34094900
H       -1.28589200       1.74234900      -0.93415200
