13
Extracted from Q-Chem output
O       1.850339      0.196135      0.591453
C       0.769325      0.099530     -0.699466
C       0.184228     -1.200333     -0.375387
C      -1.116351     -0.472518     -0.020687
N      -0.795300      0.482629      1.076779
C      -0.514595      0.838177     -0.328059
H       1.309327      0.658752      1.262055
H       1.403553      0.386629     -1.531453
H       1.425688     -0.802314      0.687139
H       0.205665     -2.036021     -1.062273
H      -2.142618     -0.779547     -0.166779
H      -1.642716      0.974698      1.345968
H      -0.901161      1.742066     -0.776662
