10
Extracted from Q-Chem output
O      -0.157251      2.012097      0.761197
C       0.129135      1.050532      0.124563
C      -1.183448     -0.337891     -0.013586
C      -0.000813     -1.024092      0.168928
O       0.845616     -0.904249     -0.896972
C       1.198784      0.370252     -0.426821
H      -1.558074     -0.227446     -1.023739
H      -1.882720     -0.227012      0.803829
H       0.402925     -1.414874      1.095318
H       2.200187      0.734603     -0.605263
