14
Extracted from Q-Chem output
C      -2.231078      0.446764      0.167550
N      -0.785736      0.466621      0.108953
C      -0.049741     -0.594356     -0.249155
O      -0.548675     -1.715191     -0.652826
N       1.255709     -0.721388     -0.280107
C       2.231606      0.273256      0.065002
H      -2.646470      1.317800     -0.341548
H      -2.592530      0.432415      1.198736
H      -2.580267     -0.452520     -0.334191
H      -0.295315      1.271442      0.454023
H       0.725120     -1.867085     -0.698970
H       3.226336     -0.157010     -0.040047
H       2.183162      1.152828     -0.589460
H       2.132261      0.611044      1.104862
