14
smiles: [C-:2]1=[O+:3][C:4]([H:12])([H:13])/[C:5](=[N:6]/[H:14])[O:7]1.[C:1]([H:8])([H:9])([H:10])[H:11]
C       -3.33808900       0.71093000       0.06817700
C        0.53260400       0.88227100       0.44855500
O        0.17129900      -0.26452700      -0.08050600
C        1.29248700      -1.11265900      -0.38693100
C        2.44691600      -0.28127400       0.05797400
N        3.66393700      -0.53826900       0.02743900
O        1.87104900       0.89599700       0.53969200
H       -4.20110300       1.17501100       0.54311200
H       -3.34531400      -0.35935700       0.26914700
H       -3.38227900       0.87837700      -1.00696800
H       -2.42441300       1.14881300       0.46712100
H        1.30920600      -1.31662600      -1.45618100
H        1.20557500      -2.04355600       0.17045200
H        4.22320100       0.22362600       0.40244100
