15
Extracted from Q-Chem output
C      -1.774213     -0.219273      0.696297
C      -0.842960      0.399306     -0.244645
O      -0.112327      1.490462     -0.142146
C       1.207800      1.151661     -0.631253
C       1.419650     -0.355910     -0.252452
O       0.462788     -0.605993      0.730287
C      -0.842045     -1.447670      0.513215
H      -1.808039      0.286889      1.663740
H      -2.766285     -0.388924      0.276545
H      -0.835202     -0.071993     -1.225790
H       1.885681      1.824099     -0.111877
H       1.265095      1.320882     -1.708714
H       1.271709     -1.011987     -1.116940
H       2.420499     -0.512533      0.154338
H      -0.875264     -2.088920      1.394936
