14
Extracted from Q-Chem output
C      -2.554629      0.240244     -0.194035
C      -1.146757     -0.210355      0.008062
C       1.605204     -0.273012      0.932780
C       1.676026     -0.692142     -0.510922
C       1.049914      0.598928     -0.132040
O      -0.363988      0.785150     -0.259125
H      -3.074063      0.116161      0.761025
H      -3.037401     -0.463049     -0.877718
H      -2.668088      1.267198     -0.555211
H       2.502558      0.054100      1.440611
H       0.873890     -0.796328      1.535847
H       2.623467     -0.667371     -1.032272
H       0.986513     -1.474204     -0.803385
H       1.532801      1.532781     -0.379318
