14
Extracted from Q-Chem output
C      -1.927298      0.426715      0.205968
C      -0.968537     -0.716889     -0.056410
C       0.926385     -0.421843      0.779877
C       1.831077     -0.303686     -0.405184
C       0.468596      0.166160     -0.732109
O      -0.430590     -0.617540     -1.384436
H      -1.902828      0.709243      1.260101
H      -2.917706     -0.000450      0.023521
H      -1.826103      1.317947     -0.425234
H       0.950215      0.381747      1.504707
H       0.790573     -1.403162      1.196000
H       2.593202      0.465091     -0.390707
H       2.133351     -1.235593     -0.865191
H       0.281053      1.233256     -0.716695
