11
Extracted from Q-Chem output
N       1.707802      0.176390      0.055982
C       0.248090      0.195872      0.029524
C      -0.346289      1.414308      0.190403
O      -1.692459      1.093096      0.118946
C      -1.864954     -0.235081     -0.072581
C      -0.676419     -0.876172     -0.140205
H       2.101084     -0.362554      0.826227
H       2.134405     -0.138040     -0.814401
H       1.925450      1.172676      0.197385
H      -2.880232     -0.593732     -0.142726
H      -0.517866     -1.933145     -0.287854
