11
Extracted from Q-Chem output
N       1.758914      0.144654      0.073567
C       0.321830     -0.014801      0.007099
C      -0.161853      1.239563      0.146814
O      -1.522197      1.138917      0.090867
C      -1.835106     -0.173313     -0.081715
C      -0.729947     -0.960434     -0.143665
H       2.219355     -0.267092      0.877689
H       2.273912     -0.064332     -0.774527
H       1.355333      1.347017      0.208646
H      -2.885939     -0.408954     -0.144783
H      -0.714412     -2.030130     -0.275269
