12
Extracted from Q-Chem output
N      -0.797037      1.801740     -1.500187
C      -0.473658      0.984498     -0.696331
C      -1.095876      0.350452      0.715025
C       0.106600     -0.413334      0.981177
C       0.505942     -1.180717     -0.202906
N       0.789429      0.208890     -0.581228
H      -1.341148      1.135760      1.421854
H      -1.962803     -0.255314      0.455916
H       0.787602     -0.285420      1.810387
H      -0.271709     -1.670800     -0.786969
H       1.413593     -1.770560     -0.122610
H       1.637021      0.442580     -1.098429
