15
Extracted from Q-Chem output
O       1.952734      0.422727     -1.114705
C       1.767508     -0.727904     -0.472506
C      -0.067196     -0.383909      0.864199
C      -0.541441      0.998903      0.423531
C      -1.420089      0.344792     -0.673758
C      -1.062646     -1.012254     -0.057494
O      -1.475707     -2.126778     -0.209771
H       2.591564      0.954185     -0.630871
H       1.230698     -0.668973      0.663298
H       1.152341     -1.377326     -1.103326
H      -0.016628     -0.684374      1.911923
H      -1.113281      1.523925      1.188257
H       0.235896      1.667283      0.047166
H      -1.039219      0.470255     -1.688959
H      -2.484823      0.576624     -0.660363
