17
smiles: [C:1](=[C:2]1[C:3]([H:11])=[C:4]([H:12])[C:5]([H:14])([H:15])[C@:6]1([O:7][H:17])[H:16])([H:8])[H:10].[H:9][H:13]
C        1.88077900       0.55549400       1.20564300
C        0.76761000       0.11742500       0.62876100
C        0.01345200      -1.10120000       0.92662800
C       -1.17483600      -1.08397200       0.32413700
C       -1.39697400       0.18217900      -0.45285500
C       -0.00157500       0.84385700      -0.46566100
O        0.00161000       2.24763600      -0.35974700
H        2.32922100       1.49454400       0.90389300
H        0.37303400      -1.91941600      -2.81086100
H        2.37073800      -0.00742000       1.99090600
H        0.38004100      -1.88654900       1.57523300
H       -1.92058500      -1.86516900       0.40517000
H        0.24563700      -2.02344200      -2.08460500
H       -1.79028200       0.01193200      -1.45668400
H       -2.11454000       0.83209600       0.06046900
H        0.48001100       0.63037900      -1.42399500
H       -0.20302800       2.47895300       0.54991600
