17
Extracted from Q-Chem output
C       1.893964     -0.257442     -0.040995
C       0.746838      0.280754      0.533823
C      -0.056191     -0.662686      1.186776
C      -1.011536     -0.994091      0.225919
C      -1.331827      0.229943     -0.617099
C      -0.145377      1.173753     -0.311708
O      -0.530503      2.358577      0.355717
H       2.464826      0.303217     -0.774338
H       1.023390     -1.190924     -0.839588
H       2.460785     -1.008936      0.504031
H       0.332143     -1.382865      1.896955
H      -1.739911     -1.790593      0.340643
H       0.067858     -1.558326     -0.683444
H      -1.431553     -0.001787     -1.677298
H      -2.266366      0.693019     -0.293660
H       0.357600      1.502162     -1.221215
H      -0.764268      2.122776      1.257275
