11
Extracted from Q-Chem output
N       2.033788     -0.103803      0.112465
C       0.800371      0.102239      0.534817
C      -0.786440      1.540907     -0.603698
N      -1.621552      0.543050     -0.280990
C      -1.262423     -0.702517      0.182702
N      -0.045223     -0.928126      0.512008
H       2.325600     -0.962372     -0.333703
H       2.723341      0.613481      0.240585
H       0.111636      1.092489     -1.050258
H      -2.586625      0.794023     -0.109111
H      -2.049733     -1.423406      0.370596
