12
Extracted from Q-Chem output
C      -1.732181     -0.198485      0.259559
N      -0.578496     -0.076769     -0.588270
C       0.677495      0.046236     -0.277012
O       1.340370      0.118372     -1.377918
C       1.335049      0.107676      1.052915
H      -1.461567     -0.137975      1.317390
H      -2.234385     -1.154141      0.092829
H      -2.448074      0.598439      0.048049
H       0.093390     -0.003668     -1.728765
H       1.861590      1.057919      1.140502
H       2.075949     -0.688864      1.117443
H       0.624151      0.008683      1.871074
