10
Extracted from Q-Chem output
O       1.682013     -0.441437     -0.257789
C       0.323110     -0.251218     -0.512292
C      -0.343570      0.909993      0.277792
C      -0.627154     -0.932373      0.331852
H       1.730211     -1.045798      0.489839
H       0.165012     -0.148915     -1.583484
H      -0.970901      1.551643     -0.329668
H       0.413429      1.414785      0.867953
H      -1.604422     -0.943514     -0.167114
H      -0.972455      0.407987      1.099411
