19
Extracted from Q-Chem output
C       2.181878     -0.773152     -0.380610
C       0.759702     -0.360031      0.089658
O       0.772045     -0.295029      1.506158
C       0.450564      0.926089     -0.644343
C      -1.679986      1.399106      0.589893
C      -2.231806      0.189379      0.355723
C      -0.214061     -1.302197     -0.397949
H       2.872869      0.033503     -0.130995
H       2.228532     -0.959066     -1.454254
H       2.484485     -1.669522      0.157265
H       0.689010      0.634229      1.731687
H       1.311860      1.427207     -1.093937
H      -0.425267      0.954901     -1.266556
H      -1.293241      1.653602      1.568541
H      -1.794930      2.224121     -0.099227
H      -2.792211     -0.012537     -0.548963
H      -2.304486     -0.540346      1.149841
H      -0.102854     -1.685183     -1.403663
H      -0.884147     -1.819437      0.267847
