14
Extracted from Q-Chem output
C      -1.844443      0.086438      0.090964
C      -0.463329      0.261082     -0.501073
C       0.435817      1.232752      0.237879
C       1.397254      0.424422      0.561626
N       1.412996     -1.143016     -1.198767
C       0.515624     -0.947671     -0.253250
O       0.484172     -1.473481      0.915550
H      -2.409765      1.018959      0.040918
H      -1.771475     -0.229547      1.131106
H      -2.393553     -0.679427     -0.459517
H      -0.469559      0.492305     -1.566155
H       0.325459      2.284207      0.460000
H       2.323089      0.148225      1.028963
H       2.037127     -1.889152     -0.886589
