12
smiles: [C:6](#[N:7])[H:11].[O:1]([C:2]([C-:3]=[C:4]=[C+:5][H:12])([H:9])[H:10])[H:8]
O       -0.22862500      -0.44703400      -0.60166700
C       -0.99133900      -0.41812400       0.57917000
C       -1.04333000       0.75684200       1.43290700
C       -0.51563900       1.92541000       0.96984900
C       -0.05737600       2.99390700       0.60451200
C        1.85560300      -2.59856500      -1.27191100
N        2.64530200      -3.40203400      -1.46872000
H       -0.14751500       0.44845000      -0.94146500
H       -2.07430700      -0.56184600       0.37218900
H       -0.72323600      -1.29602000       1.17530300
H        1.11813800      -1.84798200      -1.08762200
H        0.30689800       3.96904800       0.37729900
