19
Extracted from Q-Chem output
C      -2.441524     -0.736137      0.442388
C      -1.149113     -0.717078     -0.369056
C      -0.035748      0.073730      0.264625
C       1.640685     -0.597754     -0.414010
C       2.560049      0.378408     -0.123230
C       0.125724      1.530949     -0.045127
O      -0.925084      1.968383      0.579319
H      -3.189853     -1.363992     -0.045352
H      -2.269849     -1.133922      1.445117
H      -2.829675      0.275977      0.545480
H      -0.798560     -1.746429     -0.497700
H      -1.333719     -0.318887     -1.370934
H       0.112928     -0.130332      1.323489
H       1.379229     -0.761840     -1.453824
H       1.615162     -1.481558      0.216178
H       3.035553      0.433403      0.848813
H       1.168951      1.784314      0.376897
H       2.906632      1.076149     -0.874406
H       0.195018      1.723471     -1.140521
