8
Extracted from Q-Chem output
O      -2.450759      0.665731      0.202420
C      -1.352526      0.692584      0.686007
C      -0.219840     -0.042691      0.063490
O       0.467909      0.503507     -0.843016
C       1.323347     -0.789787     -0.525295
O       2.334198     -0.691431      0.070357
H      -1.124767      1.176007      1.656672
H       0.947307     -1.543850     -1.209475
