11
Extracted from Q-Chem output
C      -1.866386      0.052262      0.196690
C      -0.515749     -0.396831     -0.256590
O      -0.298594     -1.259423     -1.067161
C       0.697329      0.327637      0.345882
O       0.612536      1.212900      1.155792
C       2.032472     -0.218804     -0.053630
O       2.752305      0.359153     -0.949056
H      -1.949913     -0.070851      1.278454
H      -2.636525     -0.520891     -0.313436
H      -1.987048      1.118577     -0.004183
H       3.165818     -0.596280     -0.390722
