13
Extracted from Q-Chem output
C      -1.865378      0.228565     -0.467131
C      -0.448956     -0.125962     -0.182393
O      -0.157927     -1.494737      0.011551
C       0.522308      0.794573     -0.002885
O       0.658253      2.010779     -0.003804
N       1.911162      0.023529      0.356587
H      -1.959321      1.310614     -0.553921
H      -2.533239     -0.114078      0.329848
H      -2.221875     -0.212979     -1.406344
H       2.209155      0.355629      1.267431
H      -0.423730     -1.970657     -0.778990
H       1.736000     -0.981147      0.357483
H       2.602988      0.294424     -0.333535
