13
Extracted from Q-Chem output
O       1.022989      1.326597      1.374336
C       0.794164      0.534291      0.492516
C       1.831839     -0.102243     -0.423915
O       1.099186     -0.959809     -1.298753
C      -0.196889     -0.853611     -0.954111
C      -1.804255      0.306043      0.666127
C      -0.485913     -0.024904      0.059174
H       2.551276     -0.695516      0.141563
H       2.359231      0.648363     -1.013512
H      -0.866240     -1.462395     -1.548848
H      -1.812804      0.057009      1.728864
H      -2.616099     -0.233996      0.178135
H      -2.005602      1.376006      0.587314
