15
Extracted from Q-Chem output
C      -0.991386      1.069885     -0.275013
C      -0.304145     -0.279813     -0.122540
C       1.292098     -0.036434     -0.920212
C       1.906880      0.269821      0.308091
N       1.738368      0.225070      1.474001
C       0.068751     -0.643987      1.276056
N      -0.970929     -1.402385     -0.439733
H      -0.357315      1.898198      0.045895
H      -1.268812      1.229008     -1.318546
H      -1.902209      1.083694      0.327821
H       1.216643      0.763379     -1.650431
H       1.635905     -0.972475     -1.353945
H      -0.578248     -0.286535      2.072405
H       0.447302     -1.647552      1.407931
H      -1.857921     -1.183054     -0.894477
