8
Extracted from Q-Chem output
O       1.854600     -0.173416      0.256278
C       0.538679     -0.206598      0.133505
N      -0.249996      0.863546      0.123295
N      -1.554310      0.266969     -0.012930
N      -1.395557     -1.024481     -0.042718
N      -0.129534     -1.345156     -0.028865
H       2.146849      0.741945      0.304351
H      -1.178909      0.903648      0.961319
