16
Extracted from Q-Chem output
C      -1.174106     -0.525329      1.545275
C      -0.589033      0.299279      0.405532
C       0.947834      0.424637      0.449925
C       1.412930      0.435850     -1.017068
C       0.259001     -0.214659     -1.733598
C      -0.820576     -0.282307     -0.967885
H      -0.935860     -0.081396      2.514599
H      -2.261628     -0.595124      1.469239
H      -0.770081     -1.540937      1.531502
H      -1.044411      1.298397      0.439259
H       1.284075      1.296259      1.013092
H       1.354536     -0.460895      0.947136
H       1.562606      1.455617     -1.389814
H       2.358715     -0.091027     -1.162108
H       0.310898     -0.539894     -2.765836
H      -1.782749     -0.671526     -1.281839
