16
Extracted from Q-Chem output
C      -1.066467     -0.749671      1.433060
C      -0.577054      0.384010      0.558356
C       0.940722      0.707501      0.559504
C       1.009978      0.516903     -0.964140
C       0.222195     -1.082133     -1.378679
C      -0.486237      0.128919     -0.959260
H      -0.913190     -0.522176      2.490751
H      -2.133390     -0.928028      1.278964
H      -0.532142     -1.669884      1.192756
H      -1.153298      1.291380      0.752821
H       1.178452      1.725073      0.865268
H       1.563774      0.011620      1.122251
H       1.365534      1.251351     -1.675764
H       1.547941     -0.514130     -1.146027
H       0.272070     -1.040829     -2.478521
H      -1.155508      0.637720     -1.646382
