13
Extracted from Q-Chem output
C      -1.366427     -1.350422     -0.312731
N      -0.215836     -0.500351     -0.161360
C       0.912289      1.636118      0.323686
C       0.086962      0.824637     -0.673288
C       1.550872      0.521656     -0.437714
C       1.075251     -0.708150      0.104892
H      -1.527478     -1.626957     -1.358479
H      -2.255400     -0.838281      0.057742
H      -1.214870     -2.259359      0.269422
H       1.103003      2.653210     -0.006503
H       0.689402      1.544114      1.385943
H      -0.401307      1.222368     -1.551555
H       1.492259     -1.515375      0.697671
