10
Extracted from Q-Chem output
O      -2.278246     -0.629953     -0.732803
C      -1.162191     -0.020222     -0.707245
N      -0.469427     -0.484031      0.290394
C       0.849309     -0.139570      0.753268
C       1.461179      0.938472     -0.029174
N       1.917928      1.782073     -0.657030
H      -0.874911      0.752562     -1.417820
H      -1.614453     -1.136624      0.295266
H       0.809508      0.179005      1.798004
H       1.507082     -1.011326      0.705414
