14
Extracted from Q-Chem output
N      -2.169082     -0.154394      0.344894
C      -0.983806     -0.086064     -0.313166
C       0.068235     -1.129195     -0.173680
C       1.057262     -0.243430      0.080808
N       2.346269     -0.387347      0.463879
C       0.438802      1.096242     -0.093088
N      -0.641413      0.907967     -1.181883
H      -2.767112      0.653315      0.374196
H      -2.200550     -0.758830      1.148123
H       0.034197     -2.170926     -0.461744
H       2.952036      0.398426      0.306547
H       2.762570     -1.301031      0.468500
H       0.076946      1.589781      0.807099
H      -1.276533      1.700463     -1.153656
