17
Extracted from Q-Chem output
O       2.258372     -0.770321      0.940765
C       1.505502     -0.776440     -0.201619
C       0.352135     -1.495063     -0.335935
C      -1.643731     -0.525647      0.218223
C      -1.733236      0.833086      0.070432
C       0.034707      1.935727     -0.283692
C       1.149710      1.416307     -0.316726
H       1.692627     -0.971848      1.689469
H       2.102815     -0.553254     -1.072259
H       0.075954     -2.207569      0.428691
H       0.010479     -1.701891     -1.338467
H      -1.587655     -0.947570      1.212544
H      -2.026213     -1.181885     -0.549482
H      -2.185257      1.233469     -0.828277
H      -1.832655      1.440330      0.960469
H      -0.528981      2.844499     -0.295424
H       2.211997      1.521341     -0.348999
