10
Extracted from Q-Chem output
N       1.894194      0.074126      0.243616
C       0.721833     -0.153970     -0.356759
C      -0.611979      0.254887     -0.633664
N      -1.635121     -0.019046      0.396948
N      -1.404235     -0.415818      1.511681
N       0.138207     -0.909246     -1.180494
H       1.868506      0.617132      1.088196
H       2.567731     -0.673848      0.221520
H      -0.905810      1.059079     -1.306941
H      -2.601067      0.157942      0.052520
