10
Extracted from Q-Chem output
N       1.888303      0.052574      0.439189
C       0.673980      0.142020     -0.176692
C      -0.066641      0.874821     -0.891967
N      -2.118239     -0.047698      0.245182
N      -1.332103     -0.986378      0.461496
N      -0.192660     -1.024706     -0.118517
H       2.633477      0.583962      0.021153
H       2.132023     -0.897361      0.673720
H      -0.688357      1.477192     -1.509749
H      -2.926104     -0.177953      0.856964
