17
Extracted from Q-Chem output
C      -1.740726     -0.725465     -0.165094
C      -0.505479     -0.092606      0.407728
O      -0.571010     -0.166427      1.786862
C      -0.004556      1.225085     -0.134926
C       1.537333      1.157240     -0.348335
C       2.168876     -0.026494     -0.474734
C       1.013981     -1.117656     -0.378369
H      -1.845909     -1.750174      0.191023
H      -1.723089     -0.723226     -1.253380
H      -2.614666     -0.161477      0.171325
H       0.071475      0.430689      2.182178
H      -0.481556      1.417534     -1.100548
H      -0.284038      2.043164      0.533750
H       2.039851      2.106080     -0.501997
H       1.067059     -0.394943      0.470663
H       1.205275     -2.107209      0.024221
H       0.510132     -1.113659     -1.333061
