14
Extracted from Q-Chem output
C       1.197616      0.638821      0.078925
C       0.029322     -0.216969      0.418411
O       0.182454     -0.991980      1.575169
C      -0.749217     -0.950987     -0.655816
O      -0.879903     -0.233873     -1.863312
C      -0.086395      1.263697      0.570979
H      -0.062064     -0.309911     -2.356585
H       1.463019      0.785628     -0.960316
H       2.032755      0.599262      0.764665
H      -0.641866     -0.968979      2.066426
H      -1.766469     -1.131567     -0.295716
H      -0.278424     -1.928529     -0.813049
H      -0.692386      1.797097     -0.149398
H      -0.091879      1.659120      1.578333
