16
Extracted from Q-Chem output
C       1.787572     -0.353782      0.357177
C       0.538421      0.229823     -0.255276
C       0.412239      1.632564     -0.391370
C      -0.660467      0.602290      0.830086
C      -1.536013     -0.429348      0.086610
C      -0.436515     -0.757981     -0.936436
H       2.270355      0.380208      1.001319
H       2.483184     -0.614040     -0.444450
H       1.582595     -1.265881      0.923934
H      -1.053799      1.621456      0.885078
H      -0.414933      1.853684     -1.088529
H      -0.294158      0.347054      1.819787
H      -1.818755     -1.271870      0.716246
H      -2.442983      0.003528     -0.332559
H      -0.664156     -0.500608     -1.970098
H      -0.101524     -1.794462     -0.899047
