14
Extracted from Q-Chem output
C      -1.512481      1.229617      0.560631
O      -1.045684     -0.101254      0.473836
C       0.257364     -2.114192     -2.067604
C       0.172197     -1.181669     -1.165918
C       0.125435     -0.274758     -0.226004
C       1.314713      0.540608      0.188574
H      -2.489963      1.182082      1.037058
H      -0.855468      1.857833      1.170558
H      -1.619058      1.677618     -0.433227
H       0.496000     -3.138755     -1.799811
H       0.084362     -1.903251     -3.117924
H       1.473017      0.448965      1.266083
H       2.205611      0.190739     -0.329041
H       1.180544      1.599464     -0.044601
