14
Extracted from Q-Chem output
C      -1.480935      0.572900     -0.004975
O      -0.561682     -0.509867      0.007940
C      -0.348441     -1.449251     -1.456823
C       0.992859     -0.972606     -1.560802
C       0.906098     -0.205233     -0.501651
C       1.664608      0.713042      0.371198
H      -2.485812      0.171168      0.127724
H      -1.254544      1.244042      0.824934
H      -1.418431      1.126385     -0.947744
H      -0.550383     -2.462355     -1.111030
H      -1.123544     -1.057717     -2.117404
H       1.740556      0.327023      1.390397
H       2.667971      0.804557     -0.042749
H       1.222199      1.712153      0.411993
