12
smiles: [H:8][H:12].[O:1]=[C:2]=[N:3][C:4]([C@@:5]1([H:11])[O+:6]=[C-:7]1)([H:9])[H:10]
O        2.18156900       1.15035200       2.26745300
C        1.68044500       0.70332900       1.31774300
N        1.21517000       0.34226500       0.27290400
C        0.45935600      -0.77333600      -0.21866900
C       -1.01480400      -0.64994000       0.05084400
O       -1.40710400      -0.40483500       1.42687600
C       -1.63013300       0.58192200       0.63417600
H       -0.70901800       1.67945900      -1.98482900
H        0.84480900      -1.70960200       0.19692800
H        0.58588400      -0.82301700      -1.30188900
H       -1.65717800      -1.36250900      -0.45499800
H       -0.55708500       1.53578300      -2.69949900
