12
Extracted from Q-Chem output
O       1.273096      1.584620      1.588449
C       0.806445      0.940878      0.708073
N       1.255932      0.229691     -0.354127
C       0.524081     -1.069737     -0.298899
C      -0.919578     -0.621169     -0.094859
O      -1.417561     -0.155715      1.224325
C      -0.768173      0.700868      0.452727
H       0.145096      1.185035     -1.137831
H       0.927704     -1.725175      0.477045
H       0.610589     -1.574601     -1.259484
H      -1.724545     -0.878129     -0.770202
H      -0.677655      1.539182     -0.848195
