16
Extracted from Q-Chem output
C       1.743047      0.637982      0.386422
C       1.315981     -0.813172      0.203148
C      -0.087802     -1.595315     -1.466668
C      -0.106260     -0.973763     -0.332533
C      -1.322101     -0.493099      0.424517
C      -1.734194      0.938447      0.085864
H       1.672419      1.186342     -0.554110
H       1.126241      1.149637      1.126817
H       2.777931      0.683869      0.730262
H       2.014956     -1.321379     -0.467556
H       1.359496     -1.353370      1.153630
H      -1.108917     -0.584904      1.493613
H      -2.155094     -1.166846      0.216845
H      -1.983358      1.025893     -0.972081
H      -2.610910      1.226766      0.668911
H      -0.939546      1.653225      0.299677
