15
Extracted from Q-Chem output
C       2.384568      0.211070      0.016683
N       0.983248     -0.128510      0.021789
C       0.454218     -1.366688      0.340947
C      -0.929865     -1.369912      0.334704
C      -1.165538     -0.031734     -0.002389
N      -2.578933      0.374709     -0.133449
C      -0.040793      0.740326     -0.196545
H       2.963977     -0.679614     -0.225118
H       2.587330      0.967274     -0.742115
H       2.712846      0.586757      0.989100
H       1.152752     -2.169526      0.542242
H      -3.033032     -0.526312      0.083917
H      -2.842827      0.671996     -1.070590
H      -2.875700      1.078565      0.539356
H       0.133167      1.772871     -0.459214
