14
smiles: [C:2](=[C:3]([C:4]([C:5]#[C:6][H:14])([H:12])[H:13])[H:11])([H:8])[H:9].[O:1]([H:7])[H:10]
O       -2.52481000      -1.27225800       0.74161400
C       -0.82638500       1.56584000      -0.34398100
C       -0.01753500       0.76349600       0.32666400
C        0.60198700      -0.48278200      -0.24798200
C        2.05989700      -0.49298500      -0.12604500
C        3.25199100      -0.48885500      -0.01698800
H       -3.22062100      -1.40740000       0.09712800
H       -1.25728400       2.44631100       0.11612400
H       -1.08504100       1.37442200      -1.38023400
H       -2.20852100      -0.38039200       0.59183000
H        0.23490800       0.98385100       1.35991400
H        0.20644300      -1.36173700       0.27153100
H        0.32518100      -0.58696800      -1.29986500
H        4.31221500      -0.48628100       0.07569800
