14
Extracted from Q-Chem output
O      -2.610668     -0.167646      0.205866
C      -1.039655      0.779854      0.495884
C      -0.244244     -0.376248      0.655224
C       0.728589     -0.771318     -0.440179
C       1.955954      0.029265     -0.450616
C       2.945163      0.705087     -0.437697
H      -2.927893     -0.157556     -0.705940
H      -1.404630      1.323142      1.357115
H      -1.001142      1.358023     -0.422317
H      -1.581309     -0.820144      0.391409
H       0.057024     -0.620535      1.668446
H       0.998212     -1.824796     -0.334767
H       0.249150     -0.682782     -1.420877
H       3.828095      1.298795     -0.425176
