19
Extracted from Q-Chem output
C       2.610965     -0.338971      0.494622
C       1.436006      0.150283     -0.337689
C       0.111210     -0.459284      0.137572
O      -0.137258     -0.166298      1.473482
C      -1.014050     -0.148286     -0.779708
C      -2.381800      0.031682     -0.307672
O      -2.527967      0.743755      0.788182
H       3.534758      0.146976      0.178207
H       2.448407     -0.117488      1.549146
H       2.747973     -1.418152      0.391499
H       1.589148     -0.091035     -1.394616
H       1.342976      1.236401     -0.258320
H       0.221292     -1.558657      0.020767
H      -1.041139      0.222402      1.535605
H      -0.854175     -0.432662     -1.820457
H      -0.862821      1.751657     -0.528617
H      -2.452855     -1.101645     -0.139687
H      -3.091687      0.215407     -1.131318
H      -1.412312      1.780606      0.072964
