11
smiles: [C:3](=[C:4](/[C:6](=[N:5]\[H:10])[H:11])[H:9])([H:7])[H:8].[O+:1]#[C-:2]
O        1.53348900       0.63686300       2.81181400
C        1.08915600      -0.33773100       2.47299900
C        0.71895200      -0.71781700      -1.09280000
C        0.08653600       0.43820900      -0.94453600
N       -1.74807900      -0.13018300       0.59736400
C       -1.25104400       0.57624500      -0.32725200
H        1.69616400      -0.77184100      -1.55548400
H        0.27455200      -1.65499500      -0.77411500
H        0.53445200       1.35238300      -1.32322800
H       -1.07744200      -0.83201000       0.91466800
H       -1.87115600       1.38548200      -0.72056800
