14
Extracted from Q-Chem output
C      -1.945917      0.212878      0.366254
C      -0.568990      0.059867     -0.185244
C       0.117333     -1.203485     -0.323286
O       1.187034     -0.955818     -1.201896
C       1.533048      0.253776     -0.680658
N       2.403619     -0.017881      0.278881
C       0.337103      1.032594     -0.495964
H      -2.124571      1.222197      0.735987
H      -2.109073     -0.489007      1.185989
H      -2.690995     -0.004767     -0.402735
H      -0.397929     -2.144711     -0.485477
H       1.387437     -0.873945      0.715551
H       2.531370      0.774222      0.902845
H       0.282470      2.088026     -0.282348
