12
Extracted from Q-Chem output
C      -1.264517     -0.596435     -0.672756
C      -0.731070     -0.339367      0.670886
O      -0.940910     -1.441496      1.323492
C       0.543618      0.450308      0.878880
C       1.629240      0.418086     -0.091929
O       0.773005      1.545932      0.013590
H      -1.890741      0.125850     -1.188719
H      -1.340641     -1.638218     -0.967545
H      -1.624333      0.372392      0.844395
H       0.769791      0.624229      1.928031
H       1.508776     -0.173480     -0.995611
H       2.650333      0.580787      0.238290
