10
smiles: [C-:5]#[O+:6].[O:1]([C@@:2]1([H:8])[C:3]([H:9])([H:10])[O:4]1)[H:7]
O       -1.03247100      -0.72311600       0.48283300
C       -0.55690100       0.25938300      -0.35186200
C       -0.63071500       1.63156100       0.10813700
O        0.61312900       0.93086000       0.03841700
C        1.70265100      -2.34452400       0.12320000
O        2.81662500      -2.46666900       0.20219300
H       -0.55593500      -1.53823600       0.30930400
H       -0.60262000       0.02179700      -1.41377700
H       -0.99827700       1.80813400       1.11415700
H       -0.74930600       2.44616200      -0.59968100
