12
Extracted from Q-Chem output
N       1.633624      0.117840     -0.362116
C       0.493647      0.197906      0.457957
O       0.887936      0.402162      1.760237
C      -0.782208      0.751426      0.001406
C      -1.131390     -0.320514     -0.937906
N      -0.696662     -0.698853      0.404875
H       2.201864     -0.689519     -0.151687
H       1.437405      0.187988     -1.346187
H      -1.432253      1.458954      0.496581
H      -0.490369     -0.546202     -1.786532
H      -2.184163     -0.511019     -1.110810
H       0.188354      0.056064      2.322579
