17
Extracted from Q-Chem output
C      -2.240242      0.266388      0.594618
C      -0.872560     -0.040651      0.089313
C      -0.423251     -1.009240     -0.948848
C       2.550283      0.466713     -0.720011
C       1.518647      1.057985     -0.138614
C       0.463874      0.353591      0.644500
C       0.110715     -1.083678      0.448600
H      -2.914590     -0.575693      0.422878
H      -2.219151      0.473605      1.667297
H      -2.664956      1.139374      0.094585
H      -1.150702     -1.768220     -1.222565
H       0.227103     -0.697171     -1.761494
H       3.287962      1.030162     -1.278257
H       2.685961     -0.607994     -0.652678
H       1.407418      2.137529     -0.214852
H       0.397883      0.700619      1.676613
H       0.028183     -1.878714      1.171873
