17
Extracted from Q-Chem output
C      -1.862376      0.492281     -0.187735
C      -1.164117     -0.771166      0.152931
C      -0.193122     -1.479459     -0.597831
C       1.573334      1.036925     -0.938475
C       1.390079      0.963596      0.393232
C       1.028985     -0.163784      1.192583
C       0.160049     -1.214479      0.866907
H      -2.633639      0.267667     -0.927898
H      -2.339796      0.950499      0.677557
H      -1.161926      1.201841     -0.649611
H      -1.360444     -1.965360     -0.238366
H       0.225246     -1.198897     -1.562923
H       1.759936      1.991676     -1.414974
H       1.648320      0.159172     -1.563016
H       1.538711      1.885546      0.954950
H       1.398142     -0.160759      2.213178
H       0.071666     -2.029001      1.571200
