13
Extracted from Q-Chem output
N       2.831052     -0.055816     -0.097357
C       1.702743     -0.599645      0.335863
O       0.701600      0.189040     -0.048278
C      -0.589123     -0.254343      0.300248
C      -1.633136     -0.174389     -0.756658
C      -1.640529      0.790566      0.404839
H       3.695815     -0.517752      0.108986
H       2.859563      0.807675     -0.626374
H      -0.567021     -1.089381      0.987226
H      -1.319772      0.215850     -1.715828
H      -2.382163     -0.953666     -0.800220
H      -2.394572      0.682269      1.172894
H      -1.337547      1.808557      0.198791
