13
Extracted from Q-Chem output
N       2.531790     -0.234355      0.126621
C       1.326440     -0.216634     -0.462546
O       0.796107      0.956016     -0.567152
C      -0.356249     -0.167097      0.229346
C      -1.524941     -0.419272     -0.620001
C      -1.546765      0.742645      0.344938
H       3.061136     -1.084639      0.168492
H       2.977717      0.636211      0.393091
H      -0.133953     -0.787589      1.088647
H      -1.409274     -0.169681     -1.665647
H      -2.117490     -1.303885     -0.422302
H      -2.134008      0.650931      1.250799
H      -1.489052      1.735639     -0.073395
