11
Extracted from Q-Chem output
N      -1.832034     -0.435589      0.114947
C      -0.555744      0.062575      0.084641
N       0.523739     -0.838412     -0.303377
N       1.576271     -0.533250      0.675218
C       1.423122      0.622276     -0.160607
C       0.106404      1.204938      0.260418
H      -2.571846      0.236151      0.005498
H      -1.968668     -1.280979     -0.413214
H       2.371300     -1.086857      0.355362
H       1.070688     -0.214490     -1.190417
H      -0.155179      2.213977      0.525503
