16
Extracted from Q-Chem output
C       2.087774      0.763071     -0.725164
O       0.725426      0.425078     -0.799763
C       0.423880     -0.815344     -0.194584
C      -1.067376     -0.975869     -0.183422
C      -1.560959      0.354041      1.290889
O      -1.891896      0.571226     -0.223059
H       2.707831      0.028360     -1.252875
H       2.208730      1.735279     -1.200167
H       2.421562      0.826416      0.316987
H       0.825168     -0.854546      0.820022
H       0.853120     -1.629808     -0.802411
H      -1.431810     -1.176899     -1.202135
H      -1.405265     -1.758072      0.482160
H      -2.545735      0.151663      1.718017
H      -1.218720      1.321759      1.673799
H      -1.141276      1.074660     -0.573193
