16
Extracted from Q-Chem output
C       0.654627     -1.067453      0.841623
C       1.023607      1.445801     -0.844886
C      -0.026563      0.369723     -0.969308
N      -0.378304     -0.192900      0.321969
C      -1.660214     -0.863746      0.287725
C       1.138115      2.168123      0.243028
O       1.268507      2.799355      1.203653
H       0.768624     -1.983248      0.235830
H       0.408608     -1.361028      1.863103
H       1.612962     -0.548893      0.858810
H       1.696320      1.684970     -1.656900
H      -0.937699      0.783504     -1.410583
H       0.338184     -0.401225     -1.670418
H      -1.916281     -1.212867      1.289287
H      -2.437191     -0.169847     -0.036323
H      -1.669792     -1.737096     -0.387646
