14
Extracted from Q-Chem output
C       1.967224      0.830358      0.032652
N       1.398867     -0.204588     -0.896990
C       0.132970     -0.390277     -0.459040
N      -0.697862      0.664940     -0.733260
N      -1.805695      0.510201      0.063968
C      -1.687591     -0.661574      0.754720
C      -0.464807     -1.215582      0.512153
H      -0.066349      1.512126     -0.524570
H       1.575269      0.652798      1.038866
H       3.059181      0.768736      0.050900
H       1.378802      0.181523     -1.833032
H      -2.683629      0.849011     -0.294110
H      -2.510237     -1.021563      1.352456
H      -0.047911     -2.109358      0.942434
