13
Extracted from Q-Chem output
C      -1.337357     -0.327201      1.213829
C       0.093803     -0.772795     -0.810931
C       0.637862      0.238346     -1.793191
N       1.055227      0.138842     -0.416989
C       1.028377      0.829755      0.701837
O       0.407799      0.352536      1.678403
H      -1.351577     -1.404824      1.170001
H      -1.905667      0.155884      0.433341
H      -1.513141      0.084703      2.198022
H       0.382316     -1.818728     -0.876020
H       1.416385     -0.001187     -2.511934
H       0.003974      1.078471     -2.068094
H       1.523940      1.799182      0.747128
