15
Extracted from Q-Chem output
C      -1.784874      0.484426      0.285879
C      -0.857767     -0.467295     -0.437913
C       0.052864     -1.245772      0.271201
N       1.865110     -0.349539      0.287498
C       1.778557      0.845706     -0.206410
O       1.042804      1.080011     -1.224618
H      -2.148705      1.269164     -0.379775
H      -2.659351     -0.020279      0.707169
H      -1.264951      0.979847      1.110869
H       0.114468      0.349664     -1.035410
H      -1.225369     -0.901049     -1.365837
H       0.447452     -2.148553     -0.172041
H       0.054020     -1.237517      1.355838
H       2.364551     -0.371447      1.168568
H       2.283183      1.705843      0.256308
