17
Extracted from Q-Chem output
C       1.659318     -1.208331     -0.397042
C       0.529962     -0.316607      0.047348
C      -0.902352     -0.886966      0.151298
C      -1.425967      0.416500     -0.430259
C      -0.718375      1.575254      0.249246
C       0.052727      1.386851      1.521221
C      -0.020841      0.831099     -0.827843
H       1.819903     -2.024642      0.309801
H       1.420547     -1.643944     -1.371228
H       2.590816     -0.648788     -0.495129
H      -1.260708     -1.217237      1.128786
H      -1.016178     -1.704041     -0.564054
H      -2.342511      0.549074     -0.988587
H      -1.091204      2.574949      0.056247
H      -0.536532      0.772838      2.228131
H       0.908374      0.197694      1.022330
H       0.375790      1.218451     -1.755296
