11
Extracted from Q-Chem output
O      -2.222770     -1.414248      0.082673
C      -1.830599     -0.272823      0.004874
C      -0.426046      0.084838     -0.008475
C       0.233778      1.287500     -0.086707
N       1.579037      1.096503     -0.063533
C       1.740223     -0.205501      0.027493
N       0.566875     -0.859894      0.064378
H      -2.535082      0.576037     -0.062663
H      -0.200714      2.273289     -0.157453
H       2.691108     -0.715021      0.068103
H       0.404190     -1.850680      0.131309
