11
Extracted from Q-Chem output
C       2.876181     -0.172333      0.522840
C       1.744149      0.181201      0.350726
C       0.411446      0.560900      0.169774
C      -0.508945      1.373772     -0.201650
C      -1.010094      0.068505      0.343422
C      -1.533757     -0.960909     -0.603478
O      -1.246985     -1.014947     -1.768910
H       3.884664     -0.480871      0.668736
H      -0.819562      2.306172     -0.635897
H      -1.433381      0.024500      1.346274
H      -2.230302     -1.701290     -0.157629
