16
Extracted from Q-Chem output
C      -0.801590     -1.259405      0.862389
C      -1.689361      1.060412     -0.206147
C      -0.387345      0.943567     -0.763222
C       0.989258      1.171214     -0.111044
C       1.289959     -0.327080     -0.267764
C      -0.215987     -0.657065     -0.408682
H      -0.527971     -0.691375      1.752888
H      -0.379196     -2.261459      0.974499
H      -1.886447     -1.349594      0.825794
H      -1.579020      1.280767      0.873463
H      -0.337289      0.996093     -1.852277
H       1.655059      1.862058     -0.626205
H       0.893375      1.475603      0.932344
H       1.792503     -0.827518      0.561512
H       1.831789     -0.539008     -1.189790
H      -0.503547     -1.257256     -1.268285
