17
smiles: [C:1]([C:2](=[C:4]([H:13])[H:14])[C:5]([H:15])([H:16])[H:17])([H:6])([H:7])[H:8].[C:3]([H:9])([H:10])([H:11])[H:12]
C       -0.89437900       1.55791900      -0.05803000
C       -0.79083100       0.28084800       0.72423900
C        2.19126200      -0.71807300      -1.34641400
C       -0.22851400       0.23005900       1.92522200
C       -1.36710400      -0.93473300       0.05787300
H       -1.94048900       1.79292300      -0.27511500
H       -0.38603500       1.46406300      -1.02208400
H       -0.45758700       2.39942900       0.47923600
H        3.25829000      -0.51028100      -1.41128400
H        1.67727300      -0.23585300      -2.17654400
H        2.02762100      -1.79364700      -1.39425100
H        1.80232400      -0.33253200      -0.40524900
H        0.18467900       1.11568400       2.39422900
H       -0.16261700      -0.69880100       2.48011400
H       -1.26117100      -1.82539800       0.67681400
H       -2.42957200      -0.78904500      -0.15772900
H       -0.87339400      -1.11985100      -0.90058900
