13
Extracted from Q-Chem output
O       0.874131      2.148979      0.537671
C       0.672026      0.983741      0.269357
C       1.605754     -0.109439      0.151916
O       0.589890     -1.052396     -1.273337
C      -0.499653     -0.484363     -1.257147
C      -1.203001     -0.343288      0.953303
C      -0.741402      0.473709     -0.148296
H       1.528835     -1.015137      0.727817
H       2.577086      0.113612     -0.272943
H      -1.254260     -0.697338     -2.014579
H      -0.694731     -1.262082      1.206306
H      -2.112446     -0.097199      1.480220
H      -1.405607      1.302350     -0.381347
