14
smiles: [C:1](/[N:2]=[C:3](/[C:4](=[O:5])[H:11])[H:12])([H:8])([H:9])[H:10].[C:6](=[O:7])([H:13])[H:14]
C        2.67343100       0.17087700      -0.49652800
N        1.54130000       1.06405200      -0.49033800
C        0.39681400       0.58668200      -0.26986600
C       -0.77314300       1.50961200      -0.26327400
O       -1.89604500       1.13650000      -0.05959300
C       -2.62881500      -1.60126600      -0.04609700
O       -1.65781400      -2.23540100      -0.33746800
H        3.17042000       0.24467000      -1.46554800
H        3.38967900       0.51003600       0.25407500
H        2.41038900      -0.87562200      -0.30123100
H       -0.52002600       2.56809500      -0.46208200
H        0.19079700      -0.47384600      -0.07868600
H       -3.35368700      -1.25678400      -0.80842800
H       -2.85545300      -1.32586200       1.00179900
