14
Extracted from Q-Chem output
C       2.334007     -0.156128     -0.527387
N       1.234667      0.725972     -0.838496
C       0.087901      0.393531     -0.372406
C      -1.056669      1.217134     -0.064673
O      -2.201868      0.671254     -0.143735
C      -1.917129     -0.810884     -0.389878
O      -0.693040     -0.864970     -0.918713
H       2.256133     -1.126532     -1.035252
H       3.269254      0.305349     -0.846891
H       2.419724     -0.358698      0.554115
H      -0.987333      2.224640      0.330439
H      -0.001597      0.183745      0.836381
H      -2.708023     -1.166133     -1.049373
H      -2.005741     -1.221224      0.629670
