15
Extracted from Q-Chem output
C       1.932967     -0.224902     -0.379244
C       0.386019      0.472731      1.609136
O       0.931571      0.715038      0.017804
C      -0.381556      0.198303      0.397171
C      -1.573473      0.843434     -0.293077
O      -1.968541     -0.421716     -0.846510
C      -0.910346     -1.112666     -0.166707
H       1.885813     -1.114875      0.246593
H       1.790718     -0.467157     -1.433569
H       2.888847      0.273401     -0.234758
H       0.196342      1.523519      1.874442
H      -2.326693      1.246017      0.390103
H      -1.325756      1.583429     -1.058411
H      -0.263457     -1.662910     -0.854643
H      -1.282192     -1.790742      0.606242
