13
smiles: [C:1]([C:2](=[O:3])[C:4]([O:5][H:12])=[C:6]=[O:7])([H:8])([H:9])[H:10].[H:11][H:13]
C       -1.84551900       0.14873300      -0.31668700
C       -0.53911800      -0.49616800       0.06257300
O       -0.20972600      -1.60196800      -0.31509300
C        0.34459000       0.28860000       0.92748900
O        0.02037000       1.52487600       1.45479500
C        1.47252700      -0.30628800       1.33115900
O        2.43964100      -0.80699400       1.68712500
H       -2.36601900       0.51536600       0.56901700
H       -1.66145700       1.01044300      -0.96330300
H       -2.45624200      -0.57606200      -0.84941800
H        2.56789400      -0.75828900      -1.91578800
H        0.29773200       2.21298500       0.84487300
H        1.96135400      -1.09934100      -1.65090700
