11
Extracted from Q-Chem output
C      -0.363563      1.171812     -0.016257
C      -1.360751      0.354670      0.376648
C      -0.735156     -0.861372     -0.117837
N       0.138419     -1.511364      0.717557
C       1.157854     -0.815397      0.276122
C       0.787864      0.374962     -0.460033
H      -0.335431      2.255712      0.031768
H      -2.187321      0.489031      1.056569
H      -0.780632     -1.140293     -1.169151
H       2.187295     -1.115721      0.466404
H       1.497005      0.807266     -1.159895
