15
smiles: [C:1]([C:2]([H:10])([H:11])[H:12])([H:7])([H:8])[H:9].[N:3](=[C:4]=[O:5])[C:6]([H:13])([H:14])[H:15]
C       -1.67227900      -0.49478500      -0.18447200
C       -1.41189500       0.70204500      -1.08915100
N        1.81418300       0.47737800       0.86509300
C        0.99906100       0.77627700       1.68349900
O        0.26089000       1.17024200       2.49833200
C        2.15158900      -0.59855300      -0.02128000
H       -2.64791500      -0.94128700      -0.38647400
H       -1.65385400      -0.20834800       0.86897800
H       -0.91882400      -1.27178100      -0.32773900
H       -1.43099300       0.41569200      -2.14261200
H       -2.16495800       1.47933900      -0.94544700
H       -0.43596300       1.14812900      -0.88764600
H        1.54116500      -0.55384900      -0.92447400
H        2.00664200      -1.56796700       0.45786400
H        3.19696400      -0.50583300      -0.31018600
