15
Extracted from Q-Chem output
C      -2.285411      0.430011      0.130855
C      -1.461652     -0.367948     -0.848084
N       0.882608      0.265598     -0.798482
C       1.169900     -0.266982      0.339937
O       0.666165     -0.874223      1.258264
C       2.709200      0.122363      0.308840
H      -3.272891     -0.028133      0.233304
H      -2.428638      1.458337     -0.202633
H      -1.814009      0.438481      1.112514
H      -1.217243     -1.367541     -0.503161
H      -1.857730     -0.393320     -1.864470
H      -0.462692      0.202245     -1.039639
H       3.057494      0.664546     -0.566065
H       3.225037     -0.833114      0.385585
H       2.848228      0.725485      1.204089
