11
Extracted from Q-Chem output
O       1.370435      1.070743      0.789951
C       0.564161      0.036810      0.763878
C       0.757576     -0.842810     -0.386874
C      -0.254952      0.330471     -0.717335
N      -1.580325     -0.138096     -0.329340
C      -0.825464      0.402390      0.763157
H       1.746121     -0.772597     -0.819929
H       0.290096     -1.819823     -0.450297
H       0.696814      1.375917     -0.308043
H      -1.652481     -1.150557     -0.336031
H      -1.144049      1.323870      1.229794
