11
Extracted from Q-Chem output
C      -1.642288     -0.340154      0.015631
C      -0.174369     -0.083844      0.005364
N       0.713121     -1.066840      0.084357
N       1.873897     -0.448221      0.045096
N       1.835758      0.859301     -0.053134
C       0.538352      1.123726     -0.080628
H      -2.121327      0.144337      0.867991
H      -2.114380      0.038664     -0.892209
H      -1.828557     -1.411103      0.080331
H       2.741453     -0.952667      0.086186
H       0.178340      2.136801     -0.158983
