14
Extracted from Q-Chem output
C       1.627310     -0.044199     -0.199303
C       0.636242     -0.011797      0.935118
C      -0.637376      0.651973      0.623256
O      -0.853986      1.381639     -0.575482
C      -0.984258     -0.831450      0.400144
O      -1.288499     -1.150035     -0.899300
H       2.390656     -0.805061     -0.043409
H       1.222818     -0.153652     -1.212720
H       2.143267      0.922880     -0.148634
H       0.012918     -1.347262      0.765881
H      -1.163200      1.142947      1.436873
H      -0.020692      1.745861     -0.880492
H      -1.668076     -1.237579      1.143168
H      -1.378850     -0.306527     -1.369735
