15
Extracted from Q-Chem output
C      -2.666922     -0.073933      0.191665
C      -1.211552     -0.392772     -0.124262
C      -0.248033      0.311983      0.796345
O      -0.462403      0.542972      1.979438
C       0.987613      0.836058      0.317702
C       2.182251      0.110542      0.480660
C       3.103381      0.292847     -0.485206
H      -2.884167     -0.277750      1.239493
H      -3.333545     -0.676303     -0.426279
H      -2.883675      0.978501      0.003551
H      -0.960575     -0.150511     -1.160154
H      -1.019394     -1.464270      0.004130
H       3.922366     -0.402550     -0.633466
H       2.288001     -0.683559      1.219809
H       2.993118      1.113238     -1.183265
