14
Extracted from Q-Chem output
N       1.769448      0.545379      1.805996
C       0.629715      0.638275      1.054705
O       0.054124      1.708035      0.928140
C       0.197839     -0.633363      0.445198
C      -1.080890     -0.737162     -0.202348
C      -1.411576      0.271297     -1.201317
O      -0.565889     -0.714455     -1.833202
H       2.183213      1.410456      2.104225
H       2.355093     -0.266532      1.749857
H       0.560952     -1.539106      0.918425
H       0.360433     -0.643782     -1.022373
H      -1.731344     -1.597205     -0.107956
H      -0.973744      1.255495     -1.090954
H      -2.409974      0.259376     -1.625258
