13
Extracted from Q-Chem output
C      -1.133631     -0.950621     -0.129981
O      -0.131178     -1.840613      0.370685
C       0.756412     -0.752647      0.666943
C       1.109490      1.904868     -0.930705
N       0.004309      1.246634     -0.733310
C      -0.321341      0.273882      0.307496
H      -2.098047     -1.099210      0.360289
H      -1.255100     -1.038635     -1.215602
H       1.087631     -0.767537      1.706733
H       1.625809     -0.736864      0.003609
H       1.824255      1.565223     -0.153103
H      -0.768170      1.447469     -1.357475
H      -0.743616      0.793350      1.167819
