13
Extracted from Q-Chem output
C      -1.109728     -0.814086     -0.065261
O       0.050897     -1.619799     -0.178580
C       0.899831     -0.703477      0.461398
C       1.145389      1.130188     -0.583496
N      -0.206623      1.373882     -0.934250
C      -0.404365      0.512269      0.186557
H      -1.724237     -1.101544      0.796471
H      -1.718736     -0.853537     -0.971251
H       0.825371     -0.752659      1.556695
H       1.929736     -0.835930      0.155691
H       1.345031      1.732351      0.322091
H      -0.413635      0.889664     -1.801909
H      -0.640564      1.059166      1.093324
