14
Extracted from Q-Chem output
C      -1.372936      0.071863      0.656763
C      -0.631256      0.397569     -0.614068
C      -0.181257      0.970601      0.685501
O       1.006432      0.501151      1.268724
C       1.658522     -0.499333      0.638159
N       1.394229     -1.071611     -0.447714
C       0.263400     -0.643426     -1.248479
H      -1.240972     -0.923409      1.065102
H      -2.348728      0.508863      0.821183
H      -1.115253      1.079255     -1.302818
H      -0.305916      2.023736      0.894645
H       0.668347     -0.241631     -2.181213
H       2.523435     -0.798277      1.223955
H      -0.308005     -1.534557     -1.524100
