13
Extracted from Q-Chem output
O       2.226583      1.313091     -0.859781
C       1.736585      0.236778     -0.617021
N       0.457408      0.048937     -0.229003
C      -0.543255      1.089858     -0.184877
C      -1.768242      0.275792      0.244727
C      -0.159598     -1.240851     -0.020158
H       2.297056     -0.716325     -0.686087
H      -0.289638      1.872502      0.537718
H      -0.663398      1.556714     -1.165731
H      -1.663461      0.103004      1.328729
H      -1.308077     -1.074014     -0.184195
H       0.068104     -1.969359     -0.802445
H       0.006604     -1.674331      0.965612
