13
Extracted from Q-Chem output
C      -1.893557     -0.297646     -0.202471
O      -0.862626     -0.351343      0.775153
C       0.353105      0.028441      0.340122
C       0.902780      1.322908     -0.158060
N       2.086657      0.962072     -0.486955
C       1.951278     -0.460245     -0.309043
N       1.507240     -0.536027      1.063237
H      -1.970035      0.701356     -0.639017
H      -2.819890     -0.541632      0.311549
H      -1.707097     -1.028921     -0.993943
H       0.471577      2.315811     -0.226526
H       0.684802     -0.643305     -0.781669
H       1.271173     -1.502565      1.287292
