10
Extracted from Q-Chem output
O      -2.279245     -0.923553      0.980421
C      -1.609316     -0.243986      0.015796
C      -0.428841      0.300393      0.122571
C       0.772820      0.812659      0.196624
C       1.962020      0.007057     -0.166104
O       3.087796      0.423245     -0.111256
H      -1.746987     -0.957985      1.779989
H       0.953239      1.834961      0.517398
H      -2.170926     -0.178244     -0.908415
H       1.737478     -1.026173     -0.498391
