12
Extracted from Q-Chem output
O       3.096742      0.025809     -0.178379
C       1.956813     -0.131139     -0.516616
C       0.789389      0.255503      0.316211
C      -0.359276      1.028241     -0.347492
N      -0.443154     -0.391324     -0.074698
C      -1.480523     -0.867083      0.537908
O      -2.562395     -0.172769      0.472775
H       1.686815     -0.536528     -1.515040
H       0.982115      0.386328      1.377064
H      -0.152881      1.176342     -1.412530
H      -2.184827      0.739088      0.184479
H      -1.484618     -1.803326      1.084405
