18
Extracted from Q-Chem output
C       1.175213      1.054513     -0.486987
C       1.253660     -0.553078      0.512904
C       0.003757     -1.037865     -0.135393
C      -0.729235     -1.943610      0.705722
C      -0.607304      0.328249     -0.368757
C      -1.310975      1.052791      0.750565
H       1.511046      0.793260     -1.487621
H       0.653246      2.024669     -0.538063
H       2.060481      1.352140      0.100125
H       1.124073     -0.215624      1.538189
H       2.210218     -1.052390      0.349883
H       0.238048     -1.482291     -1.104855
H      -1.032853     -1.628761      1.696740
H      -1.028527     -2.929989      0.379422
H      -1.076867      0.514498     -1.340082
H      -2.343705      0.717862      0.841943
H      -1.338925      2.125108      0.542898
H      -0.823288      0.902077      1.715209
