12
Extracted from Q-Chem output
O      -1.948844      0.313151      0.283745
C      -0.803461     -0.386423      0.694876
C       0.268141     -0.376308     -0.417197
C       1.697169      1.780878     -0.722663
C       0.654730      1.024414     -0.793418
C       1.422228     -1.171614      0.007949
N       2.295716     -1.816263      0.375689
H      -1.932075      1.199077      0.647840
H      -0.373909      0.025906      1.611622
H      -1.087975     -1.422779      0.886817
H      -0.162331     -0.860284     -1.298116
H      -0.101066      1.669895     -1.269114
