12
Extracted from Q-Chem output
O      -1.870338      0.408283      0.635305
C      -0.777217     -0.432921      0.829901
C       0.282029     -0.237530     -0.281875
C       0.829828      1.419298      0.047858
C       0.532843      1.296047     -1.162974
C       1.461931     -1.068609     -0.083466
N       2.364433     -1.756951      0.079655
H      -1.582127      1.312536      0.795376
H      -0.295345     -0.285932      1.799228
H      -1.145127     -1.459019      0.767886
H      -0.200580     -0.580751     -1.206706
H       0.327997      1.365195     -2.212158
