14
smiles: [C:4](=[O:5])([H:11])[H:12].[O:1]([C:2](=[C:3]([H:9])[H:10])[C:6]([H:8])([H:13])[H:14])[H:7]
O       -0.44172700      -0.80130000      -0.57905600
C       -0.04853900       0.39310100      -1.11014300
C       -0.69802100       0.89545000      -2.15166300
C       -0.58139900      -1.57409100       2.50983300
O        0.49340700      -1.50666100       1.99012600
C        1.12012800       1.04086200      -0.43731700
H        0.12107700      -1.02782200       0.16265500
H        1.99936600       0.39105300      -0.47967400
H       -1.53822200       0.37316500      -2.58841000
H       -0.39205600       1.83892800      -2.57845300
H       -1.51468600      -1.36034300       1.95428200
H       -0.70126000      -1.85355400       3.57434900
H        1.37126700       1.98538900      -0.91502400
H        0.89781300       1.23747200       0.61580100
