17
Extracted from Q-Chem output
C       2.664295     -0.423972      0.437423
O       1.521718      0.221388     -0.056306
C       0.349011     -0.540116      0.109656
C      -0.828225      0.240508     -0.402519
C      -2.154768     -0.503979     -0.259368
C      -0.837887      1.639585     -0.196061
O      -1.446005      2.239071     -1.144778
H       2.584965     -0.613112      1.516420
H       3.515871      0.229435      0.252865
H       2.833386     -1.382364     -0.070903
H       0.226287     -0.799225      1.177864
H       0.425039     -1.493064     -0.436266
H      -1.288116      1.072418     -1.582605
H      -3.005146      0.111554     -0.551958
H      -2.160983     -1.395288     -0.890113
H      -2.318174     -0.833060      0.774408
H      -0.356706      2.233177      0.583712
