20
Extracted from Q-Chem output
C      -1.862167      1.673254      0.373013
C      -0.747156      0.770728      0.789830
N      -0.429970     -0.353189      0.079511
C      -1.194955     -1.576237     -0.034997
C       0.890981     -0.172654     -0.122739
C       1.864838     -1.233144      0.303450
C       1.401478      0.903450     -1.035314
H      -2.651510      1.108191     -0.134054
H      -2.305614      2.180227      1.232536
H      -1.540145      2.453121     -0.330053
H      -0.188344      0.966253      1.694739
H      -1.060528     -2.028963     -1.019623
H      -0.908068     -2.302751      0.732658
H      -2.248916     -1.335527      0.107124
H       2.847016     -0.801251      0.505967
H       1.529932     -1.750461      1.205281
H       2.008293     -1.989854     -0.479200
H       0.585799      1.529466     -1.394060
H       1.902438      0.458137     -1.907663
H       2.137069      1.552510     -0.550680
