16
Extracted from Q-Chem output
C       1.397277     -1.157621     -0.011718
C       0.400946     -0.164650     -0.074345
O       1.751477      1.212220      0.217598
C      -0.388017      0.468426     -1.203997
N      -1.431586      0.958415     -0.242211
C      -1.978139     -0.255731      0.349746
C      -0.686318      0.254323      0.853752
H       1.410668     -1.785425      0.872987
H       2.102769     -0.014330      0.226131
H       1.682598     -1.636209     -0.941388
H       1.758104      1.733891      1.027990
H      -0.775200     -0.225631     -1.954293
H       0.131322      1.291619     -1.682967
H      -2.012463     -1.165812     -0.241516
H      -2.842711     -0.082519      0.978808
H      -0.565231      0.658317      1.849855
