16
Extracted from Q-Chem output
C      -1.492645     -0.171354      1.988098
C      -0.772718      0.396524      0.794204
C       0.738968     -0.020545      0.436950
C       0.414932      0.263242     -1.112320
C       1.128499     -0.464558     -2.220326
C      -0.714479     -0.345325     -0.445445
H      -1.075459      0.201984      2.925845
H      -2.546371      0.113913      1.956676
H      -1.436908     -1.259948      1.979113
H      -0.758711      1.493617      0.773595
H       1.365425      0.799042      0.767940
H       1.119316     -0.986027      0.742846
H       0.471911      1.355629     -1.200621
H       2.179718     -0.174625     -2.283328
H       0.662079     -0.230523     -3.179581
H       1.062798     -1.541634     -2.065963
