16
Extracted from Q-Chem output
C      -1.052015     -0.728281      1.365824
C      -0.527438      0.491093      0.639205
C       0.996580      0.730091      0.487681
C       0.750978      0.738760     -1.019994
C       0.444500     -0.664685     -1.516081
C      -0.757048      0.673948     -0.884473
H      -0.845636     -0.666670      2.436600
H      -2.132049     -0.817047      1.230888
H      -0.592724     -1.647996      0.995607
H      -1.006410      1.384115      1.055883
H       1.321392      1.690107      0.887687
H       1.669887     -0.045423      0.861671
H       1.278098      1.376693     -1.722520
H       0.872445     -1.469834     -0.926649
H       0.585766     -0.764444     -2.586899
H      -0.719126     -0.751264     -1.436368
