11
smiles: [H:8][H:9].[N:1](=[C:2]1/[C:3]([H:10])([H:11])[O:4][C:5]1=[O:6])\[H:7]
N        1.45890000       0.30189400       0.30324100
C        0.21905900       0.41277100       0.36055700
C       -0.95889100      -0.39405300      -0.13271600
O       -1.84560200       0.59782700       0.46434400
C       -0.82287800       1.37115400       0.93561300
O       -0.86935300       2.38007200       1.54698300
H        1.91463000       1.08126100       0.77776900
H        1.66666400      -1.70149000      -1.52941900
H        1.48351900      -2.21192000      -2.03960600
H       -1.08702700      -0.43965400      -1.21331200
H       -1.09145500      -1.37215000       0.32746700
