11
Extracted from Q-Chem output
O       1.404606     -0.276652     -1.169779
C       0.994299     -0.481521      0.039654
O       0.111044     -1.525683      0.298493
C      -1.141544     -1.045609      0.128377
C      -1.212778      0.281639     -0.002773
C       0.063978      0.973592      0.135798
C       1.162762      0.636114      0.914548
H      -1.928605     -1.787757      0.102320
H      -2.114746      0.824762     -0.238530
H       0.791654      0.939330     -1.089946
H       2.069631      1.228576      0.892236
