15
Extracted from Q-Chem output
O       1.749003      0.460072     -1.160338
C       1.180670     -0.596464     -0.409713
C      -0.208383     -0.200567      0.023778
C      -0.523700      1.235754      0.374288
C      -1.078458      0.650631     -0.872463
C      -0.922796     -1.217848      0.819663
O      -0.472191     -2.291123      1.123330
H       2.623158      0.195803     -1.446862
H       1.781514     -0.817750      0.479836
H       1.118892     -1.515726     -1.003266
H      -1.946980     -0.921888      1.136726
H      -1.192799      1.415296      1.206541
H       0.299893      1.929391      0.279875
H      -0.631498      0.949313     -1.810192
H      -2.135879      0.419993     -0.912635
