15
Extracted from Q-Chem output
O       2.414140      0.432309      0.342294
C       1.489165     -0.526509     -0.135481
C       0.121888     -0.146752      0.372800
C      -0.607440      1.087768     -0.216884
C      -1.896384      0.249202     -0.416779
C      -1.058632     -0.986889     -0.113811
O      -1.208540     -2.157309     -0.296349
H       3.285463      0.216530      0.007329
H       1.736958     -1.534775      0.216787
H       1.479493     -0.550026     -1.233846
H       0.132031     -0.119711      1.466971
H      -0.689592      1.949789      0.440324
H      -0.165656      1.406469     -1.161074
H      -2.381812      0.263636     -1.392312
H      -2.651083      0.416269      0.354512
