15
Extracted from Q-Chem output
O       2.397449      0.622022     -0.205440
C       1.551244     -0.498343     -0.202058
C       0.177422     -0.137585      0.139474
C      -0.558672      1.154517     -0.024213
C      -1.775069      0.331867     -0.425835
C      -0.963917     -1.022333      0.175641
O      -1.090313     -2.229127     -0.122065
H       3.273006      0.353009     -0.486472
H       1.863116     -1.280281      0.507133
H       1.495675     -1.003187     -1.183038
H      -1.230400     -0.671490      1.251921
H      -0.625586      1.797838      0.851084
H      -0.116431      1.733382     -0.837826
H      -1.856699      0.205075     -1.501496
H      -2.743752      0.513756      0.028539
