17
Extracted from Q-Chem output
C      -2.303424     -0.575982     -0.106417
C      -0.983091     -0.009227     -0.569250
O      -0.658387      1.177749      0.139989
C       0.710917      1.409711     -0.127269
C       1.296568      0.004336     -0.313476
C       1.602102     -0.669156      1.046837
C       0.180833     -0.852799     -0.802017
H      -3.093256      0.168567     -0.200947
H      -2.227798     -0.867148      0.941663
H      -2.559002     -1.453912     -0.697163
H      -1.044358      0.221927     -1.676582
H       0.823583      2.003963     -1.045159
H       1.139076      1.966035      0.707737
H       2.191966     -0.032374     -0.934073
H       2.363898     -0.083195      1.562353
H       1.965810     -1.686012      0.911610
H       0.715484     -0.697118      1.683801
