17
Extracted from Q-Chem output
C      -2.073575     -0.552343      0.161375
C      -0.877546      0.023339     -0.558390
O      -0.506762      1.268610      0.044456
C       0.841466      1.491050     -0.298545
C       1.443091      0.093855     -0.370173
C       1.235601     -0.696620      0.909404
C       0.350523     -0.849254     -0.718946
H      -2.901444      0.156741      0.152885
H      -1.827256     -0.772743      1.202291
H      -2.394087     -1.473273     -0.325546
H      -1.141782      0.209121     -1.614749
H       0.928128      1.984281     -1.276839
H       1.289329      2.136607      0.459286
H       2.415149     -0.005781     -0.840897
H       0.811711     -0.131521      1.731893
H       2.054476     -1.361640      1.159988
H       0.442050     -1.514821      0.562624
