13
smiles: [C:1]([H:6])([H:7])([H:8])[H:12].[C:2]1([O:3][H:9])=[C:5]([H:13])[C:4]1([H:10])[H:11]
C       -1.90610600      -0.24065200       1.55165500
C        0.73462800      -0.04460300      -1.01879300
O       -0.34855500      -0.68571600      -1.44365900
C        2.12845300       0.21119900      -1.40743200
C        1.36386600       0.69250400      -0.17250000
H       -2.33971500      -0.09284900       2.53959900
H       -2.52535800      -0.93307100       0.98341500
H       -1.85797300       0.71367100       1.02943500
H       -1.05998400      -0.55354700      -0.80986300
H        2.87285200      -0.57954200      -1.30298400
H        2.34550800       0.91443800      -2.21274800
H       -0.90245800      -0.65087600       1.65289800
H        1.43063800       1.26537600       0.73263100
