13
Extracted from Q-Chem output
C      -1.164108     -0.571307      0.917608
C       0.037263      0.201233     -0.383401
O      -0.808807      0.385981     -1.423885
C       1.363527     -0.425404     -0.381457
C       1.118311      0.955291      0.199516
H      -0.766806     -0.865377      1.892549
H      -1.313899     -1.451005      0.303037
H      -2.077859      0.014738      0.996550
H      -0.972848      1.328463     -1.518340
H       1.615984     -1.252096      0.279197
H       1.745847     -0.543121     -1.393396
H      -0.234986      0.378015      0.862577
H       1.439547      1.867881     -0.287598
