19
Extracted from Q-Chem output
C       2.356931     -0.182881      0.757312
C       1.691852     -0.438097     -0.589403
C       0.448118      0.394484     -0.774495
C      -0.693931     -0.038000     -1.653153
C      -0.838752     -0.060036     -0.166079
C      -2.406375     -0.236658      1.144654
O      -1.718499      1.151084      0.265825
H       3.248796     -0.797943      0.891795
H       1.661853     -0.409332      1.569207
H       2.657353      0.863927      0.855822
H       1.420999     -1.494622     -0.670643
H       2.396418     -0.235614     -1.402826
H       0.620734      1.471343     -0.766241
H      -0.641450     -0.994386     -2.162771
H      -1.204776      0.739575     -2.210433
H      -2.874346     -0.921648      0.454102
H      -3.137076      0.434218      1.608778
H      -1.783684     -0.741808      1.867422
H      -1.211220      1.617786      0.940794
