16
Extracted from Q-Chem output
C      -2.404665      0.289092      0.954495
O      -1.256736     -0.381582      0.503372
C      -0.649936      0.248330     -0.599911
C       0.605819     -0.520071     -0.945504
N       1.540438     -0.529312      0.156946
C       2.780605      0.001476      0.081092
O       3.273495      0.494277     -0.908006
H      -2.170580      1.314521      1.268083
H      -3.175685      0.332060      0.174619
H      -2.795299     -0.262980      1.808017
H      -0.399217      1.289836     -0.353321
H      -1.331557      0.256803     -1.462245
H       1.108346     -0.058495     -1.794897
H       0.340600     -1.545266     -1.218048
H       1.211901     -0.864769      1.045655
H       3.322472     -0.063921      1.041472
