16
Extracted from Q-Chem output
C      -2.498636      0.442999      0.734482
O      -1.366782     -0.318091      0.407987
C      -0.654681      0.208490     -0.677890
C       0.583443     -0.632437     -0.914133
N       1.539719     -0.519490      0.158180
C       2.754358     -0.081446      0.122209
O       3.253320     -0.140091      1.298709
H      -2.225130      1.469062      1.013384
H      -3.207817      0.488628     -0.103072
H      -2.983121     -0.036977      1.583325
H      -0.365987      1.251564     -0.479957
H      -1.276869      0.199216     -1.586393
H       1.040618     -0.321864     -1.859629
H       0.278086     -1.676877     -1.019624
H       2.029015     -0.594172      1.403226
H       3.306811      0.285375     -0.742306
