14
Extracted from Q-Chem output
C      -1.373416      0.954747     -0.154473
C      -0.472516     -0.144184      0.412434
C      -0.722173     -1.496282     -0.281067
C       0.943981      0.159691      0.294633
C       2.137361      0.431267      0.162749
C       3.466859      0.637671      0.153232
H      -1.196165      1.080625     -1.224027
H      -1.183955      1.910253      0.335230
H      -2.423843      0.696770     -0.004281
H      -0.694231     -0.280569      1.477346
H      -0.486953     -1.432086     -1.344693
H      -1.775271     -1.760928     -0.178334
H      -0.117315     -2.287598      0.160430
H       3.757845      1.388786     -0.593083
