19
Extracted from Q-Chem output
C       2.343853      0.521880     -0.094181
O       1.414666      0.658951     -1.143927
C       0.006880     -0.799673     -1.184392
C      -1.147372     -0.507134     -0.454260
C      -1.451471     -1.327473      0.781498
C      -0.977188      1.256206      0.255191
O      -0.457767      2.082900     -0.558681
H       2.822417     -0.458438     -0.164441
H       3.118887      1.287853     -0.181197
H       1.874008      0.611511      0.890837
H       0.031418     -0.650523     -2.253766
H       0.732727     -1.508828     -0.801660
H      -2.002317     -0.280516     -1.085654
H      -2.099564     -0.778850      1.470751
H      -0.534129     -1.575218      1.320854
H      -1.955897     -2.264183      0.535204
H      -2.045164      1.369902      0.493646
H      -0.398962      0.938055      1.140338
H       0.729679      1.427318     -0.925803
