12
Extracted from Q-Chem output
O       1.655243      2.327940     -1.075725
C      -0.359413     -0.326129      0.121083
C      -1.225170     -1.442107     -0.280115
C      -1.479376     -0.669556      1.006445
C       0.651519      0.426386     -0.130405
C       1.705527      1.158649     -0.363343
H       2.536273      2.699539     -1.122825
H      -1.905068     -1.285131     -1.109070
H      -0.829270     -2.447647     -0.198716
H      -2.329223      0.002034      1.036016
H      -1.254006     -1.160660      1.945845
H       2.680580      0.858021      0.008997
