12
Extracted from Q-Chem output
N       2.262493     -0.356143      0.188496
C       1.304794     -0.514855     -0.719047
N       0.255989     -1.179061     -0.363499
C      -0.947318     -1.014205     -0.008131
C      -1.551335      0.322183      0.214387
C      -0.871128      1.513039     -0.245259
N      -1.777658      1.185286     -1.030780
H       3.132642      0.056510     -0.088836
H       2.199922     -0.716968      1.132181
H      -1.582715     -1.891884      0.088100
H      -2.335675      0.384151      0.962823
H      -0.088753      2.253334     -0.150067
