12
Extracted from Q-Chem output
N       2.277052     -0.255939     -0.151246
C       0.933532     -0.104903     -0.063430
N       0.219778     -1.199730      0.224354
C      -1.087296     -1.026257      0.337091
C      -1.702800      0.202975      0.169538
C      -0.861828      1.260608     -0.134325
N       0.449185      1.127840     -0.255399
H       2.817982      0.506622     -0.511556
H       2.650570     -1.185778     -0.162175
H      -1.668013     -1.914568      0.570611
H      -2.771661      0.328099      0.265812
H      -1.256501      2.261032     -0.289274
