12
Extracted from Q-Chem output
N       2.272833     -0.349249     -0.138210
C       1.073794     -0.753903     -0.496845
N       0.193452     -1.351914      0.170815
C      -1.075081     -1.057752      0.308929
C      -1.565939      0.236938      0.127025
C      -0.807511      1.474927      0.040006
N      -0.280413      1.249662     -1.059735
H       2.896944      0.009924     -0.836414
H       2.553706     -0.266001      0.828132
H      -1.771863     -1.871556      0.467851
H      -2.633107      0.326560     -0.064559
H      -0.855554      2.393752      0.633370
