16
Extracted from Q-Chem output
C       1.001514      1.064527      0.744188
C       0.207047      0.081750     -0.107573
C       1.132541     -0.882639     -0.865887
C      -0.774547     -0.777982      0.657653
O      -1.814662     -1.044196     -0.118752
C      -1.833337      0.453778     -0.435308
N      -0.695411      0.819038     -0.968609
H       1.643112      1.659590      0.095563
H       1.622718      0.537990      1.472685
H       0.327427      1.737035      1.276045
H       1.788456     -1.424318     -0.182502
H       0.551470     -1.591836     -1.454763
H       1.747625     -0.295727     -1.547658
H      -0.491718     -1.525852      1.400228
H      -1.654537      0.654796      0.852121
H      -2.827604      0.738120     -0.766292
