12
Extracted from Q-Chem output
O       0.056734     -1.373278     -1.009266
C      -0.959117      0.304755     -0.550879
C      -0.063815      1.066546      0.274767
O      -0.619593      1.353958      1.534047
C       1.177915      0.142855      0.455168
C       1.145098     -1.027168     -0.127939
H      -0.323098     -2.222626     -0.745679
H      -1.775947     -0.231387     -0.083189
H      -1.038133      0.501758     -1.610241
H       0.277767      1.971512     -0.236891
H       0.097930      1.200375      2.159856
H       1.885777     -1.814909     -0.062285
