8
Extracted from Q-Chem output
O       2.061065     -0.004476      0.390965
C       0.806431      0.190185      0.424879
N      -0.126680      0.984691      0.940571
N      -1.228814      0.423801      0.416623
N      -1.070240     -0.610046     -0.350209
N       0.218869     -0.757872     -0.344676
H       1.438807     -1.032037     -0.441988
H      -2.150668      0.784159      0.605936
