8
Extracted from Q-Chem output
C      -0.888940     -0.328527      0.112365
C       0.230048      0.657548      0.000119
O       0.145623      1.841951      0.069372
C       2.519423     -0.488194     -0.383520
N       1.493251      0.044138     -0.210940
H      -1.822734      0.200832      0.280648
H      -0.945936     -0.917732     -0.804445
H      -0.687456     -1.019308      0.932507
