13
Extracted from Q-Chem output
C       2.066632     -0.041713     -0.580269
O       1.219540      0.696281      0.278078
C      -0.063980      0.321912      0.248632
C      -0.751342     -0.623729     -0.427813
N      -2.067571     -0.474097      0.013977
C      -2.244699      0.504665      0.923139
N      -0.971643      0.979132      1.045201
H       2.065480     -1.101278     -0.306279
H       3.066305      0.367452     -0.459299
H       1.748697      0.065611     -1.621999
H      -0.441133     -1.355952     -1.150757
H      -2.831358     -1.038630     -0.306458
H      -0.725216      1.734776      1.657716
