17
Extracted from Q-Chem output
C       3.001234     -0.333817     -0.015672
C       1.521658     -0.162849     -0.170095
C       0.752630      0.272687      0.818841
O      -0.598647      0.444444      0.830535
C      -1.350066     -0.061833     -0.249013
C      -2.795463     -0.070797      0.195149
O      -1.153945      0.679280     -1.418818
H       3.548899      0.286343     -0.729950
H       3.301215     -1.369563     -0.195250
H       3.330916     -0.060494      0.988409
H       1.090852     -0.385557     -1.139169
H      -1.475662      1.572462     -1.267987
H       1.166092      0.551907      1.782409
H      -0.997271     -1.070637     -0.488134
H      -3.109321      0.941233      0.461878
H      -3.426863     -0.437792     -0.613314
H      -2.922786     -0.708908      1.069106
