10
Extracted from Q-Chem output
N       1.896771      0.016495     -0.199949
C       0.793387     -0.370499      0.514492
O       0.840480     -0.978427      1.544946
N      -0.409695     -0.011685     -0.139981
C      -1.614296     -0.116028      0.436968
O      -2.499276      0.287415     -0.475415
H       2.773673     -0.117841      0.271618
H       1.845331      0.786739     -0.841891
H      -0.346632      0.318389     -1.099160
H      -3.367791      0.222416     -0.073473
