18
Extracted from Q-Chem output
C      -1.682274     -1.441578      0.576677
C      -0.748912     -0.297332      0.940650
C       0.357314      0.852786     -0.666142
C       1.217893      1.684784      0.212106
C       0.895636     -0.384363     -1.272139
O       1.481935     -1.171306     -0.391150
H      -1.235709     -2.398688      0.845907
H      -1.866720     -1.465436     -0.500014
H      -2.649221     -1.352992      1.076183
H      -1.240422      0.659544      0.742895
H      -0.498776     -0.255074      2.006173
H      -0.452322      1.371144     -1.183508
H       1.937464      1.060339      0.738256
H       1.756266      2.398261     -0.421138
H       0.629243      2.272664      0.916423
H       1.600568      0.135768     -1.987770
H       0.133150     -0.844293     -1.934427
H       0.306485     -0.654699      0.526311
