13
smiles: [C:2]1([C:6](=[O:7])[H:13])=[C:5]([H:12])[O:4][C:3]1([H:9])[H:10].[O:1]([H:8])[H:11]
O        1.28406400       2.37450600      -0.65766700
C       -0.23908500      -0.63086300       0.21050100
C       -1.57296800      -1.32144400       0.36453100
O       -2.19299600      -0.04862500      -0.02527200
C       -0.94310000       0.46201800      -0.13055600
C        1.16091500      -0.96094800       0.35343700
O        2.06421200      -0.18071400       0.16196000
H        1.70765900       1.55962100      -0.38481800
H       -1.88710300      -1.59629900       1.37088000
H       -1.82726100      -2.09564200      -0.35857700
H        1.94757200       2.85116900      -1.15812700
H       -0.77133000       1.48904500      -0.42310400
H        1.37417900      -2.00554900       0.65836300
