13
Extracted from Q-Chem output
O       0.815253      0.738750     -1.252282
C       0.112773     -0.059204     -0.035963
C      -1.098461     -0.869411     -0.447047
O      -2.000134      0.152687     -0.052679
C      -0.869346      0.959336      0.393429
C       1.231842     -0.512133      0.803774
O       2.337661     -0.022693      0.735258
H       1.717613      0.915932     -0.907488
H      -1.202627     -1.765340      0.173800
H      -1.161703     -1.137680     -1.504469
H       0.143102      1.504991     -0.908934
H      -0.941802      1.298924      1.426100
H       0.979284     -1.273359      1.560938
