12
Extracted from Q-Chem output
O      -0.302165      0.247991      2.078185
C      -1.202670     -0.104948      0.381235
C      -0.520823      0.921206     -0.508659
C       0.735405      0.002369     -0.643113
C      -0.255523     -1.129498     -0.221472
C       1.533617      0.284737      0.636328
N       0.835982      0.326647      1.585305
H      -1.061678      0.910313     -1.460552
H      -0.427442      1.951414     -0.169741
H       1.301651     -0.053139     -1.571037
H       0.079489     -1.972233      0.380482
H      -0.747482     -1.512358     -1.121550
