19
Extracted from Q-Chem output
C       1.687558     -0.203101     -1.305959
C       1.144646     -0.206219     -0.003236
O       1.072646      1.683876      0.145338
C      -0.332977      1.455538      0.104345
C      -0.359723     -0.072753      0.274049
C      -0.658682     -0.473607      1.714873
C      -1.265247     -0.828107     -0.688264
H       1.553505      1.098588     -0.932619
H       2.714808     -0.520105     -1.433603
H       1.027224     -0.386702     -2.144959
H       1.786008     -0.454647      0.836740
H      -0.775528      1.804943     -0.836606
H      -0.836163      1.969734      0.927520
H      -0.034968      0.090321      2.411452
H      -0.474926     -1.539762      1.873848
H      -1.704602     -0.274654      1.957994
H      -1.142849     -1.908971     -0.585913
H      -1.077679     -0.562066     -1.728932
H      -2.309563     -0.591063     -0.471645
