13
Extracted from Q-Chem output
O       2.190154      1.038195      0.173279
C       1.835878      0.113728     -0.495567
N       0.493559     -0.191113     -0.765293
C      -0.594398      0.758194     -0.405804
C      -1.441892     -0.220744      0.385272
C      -0.320130     -1.283769      0.456370
H       2.526543     -0.626747     -0.929237
H      -0.143825      1.534143      0.208737
H      -1.033150      1.210721     -1.296895
H      -1.787687      0.170189      1.343722
H      -2.309899     -0.576647     -0.174374
H       0.367124     -0.719416     -1.616172
H       0.325696     -0.998752      1.304986
