11
smiles: [C:5](=[O:6])([H:10])[H:11].[N:3](=[C:4]([H:8])[H:9])[H:7].[O+:1]#[C-:2]
O        1.71037100       0.33347700      -0.04894500
C        0.72707700       0.87258200       0.01859500
N       -0.06952000      -2.34403500       0.86832400
C       -0.48666900      -3.40579400       1.40458800
C       -0.30811700       3.69790200      -1.51536200
O        0.82959000       3.43699800      -1.77502800
H        0.85036200      -2.48149900       0.45139700
H        0.06379100      -4.35189600       1.42123400
H       -1.46245600      -3.40270600       1.89151400
H       -0.92223200       3.05186100      -0.85905300
H       -0.80809800       4.59977400      -1.91803800
