17
Extracted from Q-Chem output
C       2.444872     -0.562044      0.517908
C       1.270847     -0.273947     -0.406874
C      -0.009076     -0.091856      0.370679
C      -0.314088      1.193493      1.046222
N      -1.118962      0.525921     -0.338591
C      -2.466428      0.044465     -0.096349
H       2.575923      0.252829      1.232689
H       2.291401     -1.484496      1.083889
H       3.373401     -0.669237     -0.044420
H       1.454621      0.641822     -0.973676
H       1.142802     -1.083963     -1.132347
H      -0.341663     -0.995719      0.881977
H      -0.876329      1.621894     -0.160725
H      -1.045994      1.035068      1.846653
H      -2.717093     -0.700358     -0.854677
H      -3.171990      0.871120     -0.183199
H      -2.573393     -0.405192      0.896231
