12
Extracted from Q-Chem output
C       2.135533     -0.237521     -0.012402
O       1.270518     -1.362612      0.235174
C      -0.024014     -1.237013      0.335484
O      -0.358911      0.039525      0.194137
C      -1.766117      0.299256      0.232857
O      -2.258021      0.544779     -1.031716
H       1.890307      0.228989     -0.965498
H       2.046027      0.496526      0.787112
H       3.140623     -0.648963     -0.039570
H      -2.264993     -0.586095      0.622061
H      -1.884398      1.155623      0.901756
H      -1.939845      1.395852     -1.340259
