12
Extracted from Q-Chem output
C       2.253378     -0.381308     -0.049668
O       1.167304     -1.022790      0.640014
C      -0.032097     -0.452980      0.578331
O      -0.108038      0.612476     -0.101597
C      -1.972151      0.072356      0.152982
O      -2.434900      0.683817     -0.928519
H       2.056403     -0.328768     -1.120329
H       2.414068      0.628066      0.329173
H       3.124663     -1.000896      0.145984
H      -2.244911     -0.971705      0.128959
H      -2.035680      0.570448      1.110625
H      -2.190274      1.615269     -0.912513
