15
Extracted from Q-Chem output
O       2.597729      0.810421      0.564408
C       1.882150     -0.283926      0.054548
C       0.576643     -0.463067      0.821580
O      -0.246578      0.722266      0.736794
C      -1.270283     -0.144893      0.198498
C      -1.908058      0.349821     -1.080470
C      -0.421718     -1.371282      0.189266
H       2.022946      1.579812      0.516525
H       1.669101     -0.156783     -1.013869
H       2.495615     -1.176552      0.177288
H       0.793847     -0.737958      1.862410
H      -2.043408     -0.340796      0.963668
H      -2.394375      1.309152     -0.902513
H      -2.649528     -0.371439     -1.423842
H      -1.156331      0.482047     -1.858475
