15
Extracted from Q-Chem output
O       2.478650      0.843521      0.570404
C       1.631561      0.008866     -0.184158
C       0.454959     -0.452344      0.638020
O      -0.370551      0.638788      1.128591
C      -1.486123     -0.036028      0.559083
C      -1.515264      0.138831     -0.932903
C      -0.728477     -1.237972      0.065217
H       1.941418      1.556796      0.925845
H       1.284974      0.519033     -1.092147
H       2.217406     -0.859889     -0.490205
H       0.806754     -1.034995      1.497601
H      -2.410976     -0.011136      1.123759
H      -1.029476      1.035738     -1.299891
H      -2.461894     -0.125012     -1.390173
H      -0.860043     -0.820169     -1.283039
