15
Extracted from Q-Chem output
C       2.089781     -0.944508     -1.544027
C       1.082503     -0.175034     -0.773685
C       0.977277      0.663108      0.178280
C      -0.025626      1.396150      0.755025
C      -1.438817      0.463700     -0.064004
C      -2.140754     -0.443033      0.873940
O      -2.650260      0.803720      0.371461
H       3.100223     -0.709500     -1.213857
H       1.925100     -2.017124     -1.427184
H       2.008901     -0.715569     -2.607940
H      -0.132056      2.430847      0.440121
H      -0.257529      1.236107      1.806356
H      -0.080891     -0.233803     -1.039344
H      -2.631861     -1.327026      0.483731
H      -1.912524     -0.440647      1.934142
