11
Extracted from Q-Chem output
C       1.132309     -0.004643     -0.187888
C      -0.311126     -0.266009     -0.653428
N      -1.019300     -1.421839     -0.167337
C       0.018842      0.884968      0.186038
N      -0.437030      1.845483      0.849708
H       1.851012      0.308846     -0.935945
H       0.311102      2.320278      1.355736
H       1.540075     -0.652423      0.582538
H      -0.482376     -0.074229     -1.708429
H      -2.013386     -1.230824     -0.141976
H      -0.740957     -1.634201      0.782519
