11
Extracted from Q-Chem output
C       1.155314      0.074520     -0.000117
C      -0.292598     -0.136953     -0.554767
N      -0.983302     -1.331648     -0.164640
C      -0.369536      1.090260      0.196572
N      -0.428592      2.091844      0.876735
H       1.910040      0.161806     -0.774209
H       0.733217      1.513200      0.798988
H       1.384255     -0.650018      0.777155
H      -0.350652      0.026849     -1.629207
H      -1.971966     -1.282117     -0.370951
H      -0.870742     -1.516497      0.822863
