16
smiles: [C:1](=[C:2]([C:3]([O:4][H:12])([H:10])[H:11])[H:9])([H:7])[H:8].[C:5](=[C:6]([H:15])[H:16])([H:13])[H:14]
C        1.82981300       2.36505300      -0.14934400
C        1.02558400       1.31496800      -0.13734300
C        0.59226600       0.59118100       1.10182600
O        0.93631700      -0.78359500       1.08632700
C       -1.57530600      -1.47722400      -1.23387400
C       -1.90843300      -2.10690300      -0.12037600
H        2.10415100       2.86294400      -1.07138300
H        2.24477200       2.76796600       0.76885100
H        0.62919800       0.93181700      -1.07645200
H       -0.49037700       0.71387700       1.24316000
H        1.08577400       1.01787200       1.97618400
H        0.45652700      -1.21434300       0.37667900
H       -1.04826700      -1.98064200      -2.03643200
H       -1.81557700      -0.43176000      -1.39061100
H       -2.43547300      -1.60347800       0.68218100
H       -1.66821300      -3.15236900       0.03642600
