13
Extracted from Q-Chem output
O       1.590994     -1.388597      0.550445
C       1.415632     -0.128421      0.541409
C      -0.295239      0.452067     -0.502613
C      -0.821674     -0.808667     -0.447405
C      -0.744419     -2.030063     -0.213964
C      -0.819114      1.523086      0.297140
C      -1.205623      2.436301      0.969226
H       0.478842     -1.931056      0.303692
H       1.072716      0.367458      1.455559
H       2.052584      0.470053     -0.115326
H       0.099812      0.756543     -1.468677
H      -1.260541     -2.963543     -0.327454
H      -1.563968      3.244841      1.561320
