13
Extracted from Q-Chem output
C      -1.777582     -0.115332      0.591063
C      -0.506032     -0.757002      0.106898
C       0.010005     -0.495952     -1.281928
N       0.636967      0.078864     -0.163781
C       1.552690      0.796228      0.330857
O       2.546342      1.294590     -0.419284
H      -1.754304      0.090639      1.664373
H      -2.612722     -0.790621      0.395296
H      -1.955463      0.810967      0.044603
H      -0.216309     -1.661075      0.647616
H       0.608140     -1.279895     -1.746974
H       2.360728      1.103669     -1.346820
H       1.581652      1.067362      1.376541
