11
Extracted from Q-Chem output
C      -2.017409      0.504181      0.056479
C       0.233148     -0.445214     -0.361264
C      -0.748224      0.327133     -0.727526
N       3.132900     -0.482266      0.209980
N       2.130454     -0.843098      0.813357
N       1.105305     -1.243432     -0.045652
H      -2.880239      0.198852     -0.539066
H      -2.159259      1.551545      0.330392
H      -2.005575     -0.088915      0.969861
H      -0.623166      0.866633     -1.659955
H       3.823327     -0.261556      0.934327
