13
Extracted from Q-Chem output
C      -0.249238      1.780507     -0.381807
C      -0.263817      0.563830      0.466591
C      -0.526073     -1.433220     -0.123174
C       0.730182     -0.390277      0.391882
C       2.018576     -0.606597      0.326271
H       0.772808      2.174390     -0.391981
H      -0.498872      1.538163     -1.419126
H      -0.957610      2.531913     -0.033582
H      -1.110332      0.403489      1.127964
H      -0.926054     -1.938797      0.751861
H       0.080975     -2.093371     -0.734088
H      -1.342631     -1.062545     -0.743264
H       2.346406     -1.501763     -0.205273
