11
smiles: [N:3](=[C:4]([H:8])[H:9])[H:7].[O:1]=[c:2]1[c:5]([H:10])[c:6]1[H:11]
O        1.72128100      -0.38562300      -0.73734900
C        1.58955600       0.55736600      -0.01221000
N       -1.33641000      -0.80140800      -0.15178300
C       -2.14760700      -1.63428900      -0.63872600
C        0.80874600       1.38906900       0.83912500
C        2.09428500       1.70713000       0.65831700
H       -0.39733000      -0.94741200      -0.52008200
H       -3.19327900      -1.59335500      -0.33155100
H       -1.88184800      -2.41210500      -1.36180300
H       -0.10400600       1.68076700       1.33901500
H        2.86674900       2.41594900       0.92067800
