12
Extracted from Q-Chem output
O       0.811245      2.171201      0.847005
C       0.483346      1.115667      0.363611
N       1.280846      0.101269     -0.051256
C       0.556627     -0.982347     -0.691054
C      -0.899532     -0.631384     -0.704292
O      -1.255700     -0.280743      1.169807
C      -0.938208      0.625788      0.086366
H       2.276233      0.131217      0.082213
H       0.723987     -1.953709     -0.219318
H       0.826529     -1.092028     -1.750351
H      -2.166881     -0.573202      1.049645
H      -1.677067      1.405754     -0.073075
