15
Extracted from Q-Chem output
O       2.056674     -1.025817      0.043243
C       0.920704     -0.289148      0.431792
C       0.750922      1.065997     -0.272433
C      -0.738083      1.245826     -0.348742
C      -1.615249     -0.498659      0.682035
C      -0.386455     -1.001423      0.085858
O      -1.074478     -0.248569     -0.934893
H       2.207358     -0.876846     -0.893326
H       0.995927     -0.174520      1.514869
H       1.234785      1.878801      0.270431
H       1.234562      0.984761     -1.265714
H      -1.069351      1.891177     -1.163399
H      -1.673638      0.174732      1.518258
H      -2.510557     -1.068630      0.457195
H      -0.300768     -2.055234     -0.161799
