12
Extracted from Q-Chem output
C       1.591286     -0.304318     -0.239154
C       0.391285      0.599375     -0.188909
O       0.251611      1.536766     -0.937027
C      -0.700996      0.250595      0.798033
C      -1.904475     -0.479182      0.249593
O      -1.732056     -0.758968     -1.054456
H       1.261600     -1.326055     -0.446755
H       2.094489     -0.318471      0.730619
H       2.281901      0.025268     -1.011946
H      -0.363514     -0.328261      1.664656
H      -1.143206      1.165169      1.214053
H      -2.052794     -0.109514     -1.686630
