14
Extracted from Q-Chem output
O       1.540744      2.179573     -0.247005
C       1.086497      1.060743     -0.188276
C       1.441734     -0.220114     -0.521253
C       0.606065     -1.354415     -0.244193
C      -0.699242     -1.273159      0.065989
C      -1.324023      0.082072      0.040816
N      -0.346069      1.045597      0.596166
H      -0.138609      0.814022      1.566502
H       2.422247     -0.350828     -0.955669
H       1.071117     -2.333365     -0.299773
H      -1.311515     -2.139251      0.270104
H      -2.252480      0.140695      0.610520
H      -1.522220      0.417983     -0.985127
H      -0.653494      2.012892      0.549457
