14
Extracted from Q-Chem output
O       1.272802      2.177484     -0.758975
C       0.910834      1.129724     -0.312266
C       1.483057     -0.156412     -0.055443
C       0.569297     -1.314805     -0.140191
C      -0.760153     -1.212465     -0.129142
C      -1.384382      0.148884      0.021085
N      -0.341789      1.031413      0.563767
H       0.666827      0.353881      1.080845
H       2.523778     -0.312518     -0.305997
H       1.034792     -2.292494     -0.187475
H      -1.403180     -2.079976     -0.191256
H      -2.211224      0.127690      0.734041
H      -1.780007      0.539667     -0.928220
H      -0.659897      1.942370      0.867486
