10
Extracted from Q-Chem output
C       1.496459      0.801450     -0.067632
C       1.103494     -0.387237      0.250967
C      -0.012079     -0.953553      0.758615
C       0.040332      0.827005      0.326951
O      -0.944495      0.904308     -0.636746
N      -1.546977     -0.333428     -0.931960
C      -1.031203     -1.268415     -0.232757
H       2.295422      1.454325     -0.349086
H      -0.213576      1.285298      1.278455
H      -1.453535     -2.256916     -0.359196
