12
Extracted from Q-Chem output
N      -0.875102     -0.898598     -0.698071
C       0.511459     -0.812740     -0.967027
C      -1.327861      0.032448      0.266389
C      -0.508155      0.822724      0.948213
N       0.884012      0.890566      0.698841
C       1.332104     -0.022929     -0.285792
H      -1.444891     -0.925449     -1.529342
H       0.884065     -1.460333     -1.748196
H      -2.393264      0.047500      0.449047
H      -0.886605      1.489770      1.710046
H       1.442785      0.881852      1.538367
H       2.393875     -0.019374     -0.489143
