12
Extracted from Q-Chem output
N      -0.866472     -1.191027     -0.440736
C       0.137867     -0.344577     -0.926821
C      -1.337431      0.059042      0.183708
C      -0.166654      0.788557      0.583290
N       0.935525      0.186864      1.203562
C       1.337177     -0.047138     -0.195707
H      -0.521568     -1.866106      0.234997
H      -0.006531      0.015135     -1.943489
H      -2.145121      0.569184     -0.321582
H      -0.119985      1.872099      0.496171
H       0.691713     -0.668516      1.693653
H       2.062455      0.641320     -0.605247
