13
Extracted from Q-Chem output
C       0.486061     -1.129823     -0.031783
C       1.218709      0.009862     -0.683124
C       0.619132      1.174623     -0.496227
C      -0.675516      1.043113      0.263319
N      -1.785589      0.536150     -0.345831
C      -0.745619     -0.494106      0.613048
H       1.093919     -1.617570      0.734995
H       0.211426     -1.898893     -0.757599
H       2.118665     -0.144163     -1.266248
H       0.969525      2.130497     -0.864026
H      -0.797617      1.713082      1.126515
H      -1.708611     -0.880526      0.155933
H      -0.900502     -0.584339      1.685625
