11
Extracted from Q-Chem output
O       0.199721      1.633932      0.837844
C       0.540757      0.635562     -0.086637
C       1.612055     -0.368804      0.370382
O       0.376689     -1.515450      0.030237
C      -0.389102     -0.534644     -0.118961
N      -1.707091     -0.585959     -0.165195
H       0.636798      1.355807      1.653364
H       0.661477      1.099574     -1.070900
H       2.294014     -0.605586     -0.455166
H      -2.192364     -1.455341     -0.018499
H      -2.226155      0.273995     -0.190947
