17
Extracted from Q-Chem output
C       1.826317      0.231884     -0.056201
C       0.316352      0.114228     -0.055622
C      -0.227789     -1.264130      0.362565
C      -0.601405     -1.415378     -1.112793
C      -1.773044      1.559658      0.572686
C      -0.336519      1.343670      0.582811
O      -0.186249     -0.073397     -1.401980
H       2.134205      1.120069     -0.611201
H       2.281354     -0.640085     -0.528064
H       2.206895      0.312640      0.965310
H      -1.080856     -1.230493      1.039646
H       0.515277     -1.958665      0.750322
H      -0.012730     -2.148833     -1.671352
H      -2.259434      0.575881      0.411525
H      -1.661670     -1.567425     -1.329519
H       0.228270      2.259333      0.379140
H      -0.297126      1.261310      1.698164
