17
Extracted from Q-Chem output
C       1.928531      0.344346      0.217918
C       0.480266      0.052828     -0.065289
C      -0.152908     -1.291242      0.329682
C      -0.826381     -1.107052     -1.023575
C      -1.902315      0.937571      0.084380
C      -0.459682      1.247825      0.285160
O       0.234376     -0.272196     -1.449683
H       2.241546      1.253690     -0.297934
H       2.554857     -0.479903     -0.123644
H       2.083701      0.484079      1.289217
H      -0.751163     -1.364194      1.234507
H       0.590723     -2.086800      0.290245
H      -1.041403     -1.939001     -1.692842
H      -2.196328      0.269116      0.915450
H      -1.769319     -0.471085     -0.947248
H      -0.131328      2.087844     -0.331733
H      -0.289405      1.491132      1.343374
