21
Extracted from Q-Chem output
C      -1.668434     -0.608186     -1.143653
C      -1.204284     -0.341364      0.286017
C      -2.234719      0.486032      1.047603
C       0.160699      0.358400      0.331606
C       1.217891     -0.521109     -0.294414
C       2.823266      0.541570     -0.097716
O       1.498660     -1.678726      0.286595
H      -2.659612     -1.065782     -1.146457
H      -0.996900     -1.287413     -1.672049
H      -1.731088      0.322638     -1.716131
H      -1.084229     -1.303429      0.792729
H      -3.203291     -0.017805      1.064108
H      -2.376871      1.463794      0.577228
H      -1.927252      0.654097      2.081999
H       0.432951      0.537303      1.374301
H       0.105239      1.323200     -0.183886
H       1.208309     -0.505516     -1.395893
H       2.822900      1.067824      0.854061
H       2.587327      1.208126     -0.921093
H       3.803332      0.093608     -0.301735
H       2.429149     -0.713466      0.199142
