15
smiles: [C:1]([C:2]([O:3][H:12])=[C:4]([H:13])[H:14])([H:8])([H:9])[H:10].[O:5]=[C:6]([O:7][H:11])[H:15]
C       -1.81326400       1.29618900      -0.54004400
C       -1.01445800       0.16244100       0.00908100
O       -0.63917000       0.41111700       1.29327900
C       -0.70288800      -0.94886200      -0.65088700
O        1.76831700      -0.91388500       1.60222300
C        2.57305100      -0.60316000       0.77656500
O        2.28229900      -0.22575200      -0.47219200
H       -2.70533800       1.45355400       0.06945400
H       -2.11277800       1.09937600      -1.56722200
H       -1.22756600       2.21702900      -0.50868300
H        1.32048400      -0.25304900      -0.56842100
H       -0.12706300      -0.33111000       1.62363800
H       -1.02941500      -1.09004100      -1.67036900
H       -0.12031200      -1.74081800      -0.19406800
H        3.65998600      -0.58479900       0.92994100
