15
Extracted from Q-Chem output
C      -1.388617      1.147429     -0.593633
C      -0.655687      0.090532      0.213327
O      -0.983116      0.057205      1.579165
C      -0.380922     -1.158981     -0.336679
O       1.625153     -1.510000     -0.379746
C       2.272865     -0.586083      0.156747
O       1.909112      0.620792      0.173910
H      -2.468068      1.004647     -0.516102
H      -1.099455      1.104862     -1.644317
H      -1.150268      2.145780     -0.223166
H       0.571868      0.440488      0.102763
H      -0.559306      0.797765      2.017730
H      -0.414165     -1.294624     -1.407465
H      -0.423724     -2.050044      0.272708
H       3.215273     -0.846365      0.671385
