11
smiles: [O:1]([C@@:2]1([H:7])[C:3]([H:8])([H:9])[C:4]1)[H:6].[O:5]([H:10])[H:11]
O        0.69827300       1.70137400       0.69429800
C        0.73363800       0.79037300      -0.32645900
C        0.40132400      -1.77013700      -0.00079000
C        0.56464500      -0.48828800      -0.14196900
O       -1.64695100       0.02783200       0.41729800
H        0.84632400       2.57599400       0.33418500
H        0.91208300       1.17765500      -1.32527300
H       -0.58243000      -2.22528000      -0.05854900
H        1.24172300      -2.43058000       0.18825000
H       -2.39720800       0.33485900      -0.09317400
H       -1.21345100       0.82074500       0.73531000
