19
Extracted from Q-Chem output
C      -1.227609      0.973070     -0.464222
C      -1.476110      0.286596      0.864848
C      -0.411048     -0.787914      1.146827
C       0.933118     -0.150880      0.918396
C       1.956939     -0.808480      0.006345
C       1.175720      0.354504     -0.434952
O       0.350804     -0.275176     -2.173062
H      -0.919829      2.014744     -0.364179
H      -0.395990      0.228709     -1.565888
H      -2.104787      0.941095     -1.118146
H      -2.458040     -0.194127      0.877158
H      -1.472447      0.998962      1.697542
H      -0.543750     -1.614128      0.442315
H      -0.490929     -1.197591      2.156648
H       1.277923      0.494924      1.723320
H       1.685173     -1.786653     -0.366907
H       3.020272     -0.663761      0.164581
H       1.561434      1.317717     -0.722394
H       0.624288      0.315108     -2.885667
