11
Extracted from Q-Chem output
N      -2.050460     -0.473997      0.216164
C      -0.709589     -0.188385      0.036870
N       0.204595     -1.132924      0.166455
N       1.383781     -0.565879     -0.054733
C       1.220446      0.822256     -0.209363
C      -0.198358      1.115943     -0.300700
H      -2.658129      0.208204     -0.203784
H      -2.317104     -1.426505      0.030912
H       2.210674     -1.069185      0.212539
H       2.004216      1.382151     -0.705381
H       1.011747      1.307152      0.810747
