19
Extracted from Q-Chem output
C      -2.189527     -0.149135      1.058337
C      -1.303008      0.783143      0.228497
C      -0.692243     -0.068974     -0.867606
C       0.963005      0.689952     -1.303061
C       0.652816     -0.624825     -0.585789
C       1.237461     -0.790722      0.802908
O       2.626890     -1.061950      0.770658
H      -2.911383     -0.662097      0.421428
H      -2.735973      0.416827      1.813760
H      -1.600635     -0.910445      1.574205
H      -0.598900      1.296320      0.897031
H      -1.935712      1.551737     -0.221213
H      -0.093268      0.974672     -1.736330
H       1.509601      0.577291     -2.234283
H       1.316937      1.487957     -0.656399
H       0.909409     -1.488969     -1.197419
H       1.026632      0.079209      1.434078
H       0.786103     -1.661137      1.282016
H       3.075231     -0.313056      0.373392
