14
smiles: [H:11][H:14].[O:1]([C:2]([C@@:3]1([C:6]#[O+:7])[C-:4]([H:12])[N:5]1[H:13])([H:9])[H:10])[H:8]
O        1.98288200      -0.55684800      -0.08845100
C        1.19675300       0.53119000      -0.44090700
C       -0.12664400       0.48852600       0.31449400
C       -0.36563400      -0.64809800       1.38130900
N       -0.19479600       0.71341800       1.77175400
C       -1.31074200       0.72010300      -0.31260500
O       -2.30375000       0.92560700      -0.84436000
H        1.45771700      -1.05001000       0.57764400
H        1.69496900       1.47394600      -0.18824500
H        0.99276700       0.52986600      -1.51996100
H        0.01727400      -1.75295800      -1.79531900
H       -1.40935400      -0.99574100       1.43959100
H       -1.03206700       1.22371300       2.06165500
H       -0.62653300      -1.75677100      -2.16933800
