14
Extracted from Q-Chem output
O       2.209209     -0.282581      0.051810
C       1.232477      0.509095     -0.553227
C      -0.111484      0.421684      0.144076
C      -0.565925     -0.926206      0.706456
N      -0.083579      0.102372      1.559066
C      -1.303734      0.536789     -0.628526
O      -2.275102      1.094858     -0.928724
H       2.064151     -0.250126      1.003409
H       1.527737      1.566821     -0.572402
H       1.123381      0.173898     -1.588012
H      -0.479626     -1.498214     -0.643663
H      -1.657133     -1.065396      0.767033
H      -0.751058      0.515521      2.199972
H      -0.949971     -1.020331     -1.370097
