12
Extracted from Q-Chem output
C      -0.976988      0.778709     -0.078259
C       0.269338      1.225790     -0.215574
C       1.369416      0.273122     -0.154618
C       1.119377     -0.938228      0.351312
O      -0.115038     -1.352898      0.699904
C      -1.184330     -0.704667      0.005618
H      -2.089057     -0.966076      0.552496
H      -1.835870      1.437194     -0.047740
H       0.484136      2.283759     -0.306647
H       2.383766      0.556984     -0.393838
H       1.882116     -1.667760      0.594952
H      -1.251608     -1.146283     -1.001205
