12
Extracted from Q-Chem output
C      -0.981942      0.602798     -0.190042
C       0.235219      1.241741      0.117499
C       1.330166      0.366904      0.077322
C       1.083226     -0.974453      0.173413
O      -0.095884     -1.341554      0.868105
C      -0.927613     -0.847883     -0.093948
H      -1.700320      0.082002      0.672010
H      -1.736692      1.063128     -0.819959
H       0.330542      2.316846      0.118956
H       2.324623      0.722575     -0.164813
H       1.733135     -1.794169     -0.096179
H      -1.566461     -1.530963     -0.645295
