15
smiles: [H:11][H:12].[O:1]([C:2]([C:3]1=[O+:4][C-:5]2[C:6]([H:13])([H:14])[C@@:7]12[H:15])([H:9])[H:10])[H:8]
O        2.36828100       0.96933500       0.57307600
C        1.61992000      -0.11111300       0.09889000
C        0.24960800       0.29797600      -0.33363000
O       -0.27881100       1.39391800       0.15256100
C       -1.58998900       0.55163900       0.22038600
C       -1.94020100       0.52475600      -1.19451700
C       -0.76943700      -0.42783800      -0.91563800
H        1.78770500       1.52482500       1.10281800
H        2.15123500      -0.55243800      -0.74626200
H        1.49678600      -0.89702700       0.85964300
H        0.29498900      -1.35220000       2.40864900
H       -0.04860300      -2.01277000       2.41098800
H       -1.71635600       1.36071700      -1.85401400
H       -2.85864600      -0.00995700      -1.40937900
H       -0.76901900      -1.48903900      -1.10536200
