11
Extracted from Q-Chem output
O       1.436635      0.287106      1.488783
C       0.105822     -0.148155     -0.038009
C      -0.851416      0.648249     -0.784425
C      -1.279586     -0.568360      0.022521
C       1.460797     -0.511722      0.134738
N       2.303014     -1.123940     -0.445352
H       1.951481      1.093821      1.355469
H      -1.107990      1.624896     -0.391338
H      -0.777735      0.591162     -1.865017
H      -1.807923     -0.393394      0.952465
H      -1.518565     -1.501977     -0.474838
