18
Extracted from Q-Chem output
C      -2.462418     -0.183550     -1.131023
C      -1.378275      0.095153     -0.098887
C       0.020953     -0.158620     -0.643311
C       1.152653      0.133277      0.311471
C       2.557354     -0.147572     -0.153342
C       0.935441      0.615812      1.505726
N       0.746486      1.175257      2.579967
H      -3.457390     -0.006088     -0.719522
H      -2.346817      0.457883     -2.008030
H      -2.425254     -1.220779     -1.473564
H      -1.451748      1.131707      0.243240
H      -1.541028     -0.530512      0.784320
H       0.102123     -1.203963     -0.967292
H       0.172960      0.443211     -1.548418
H       0.607420      0.540695      3.363330
H       2.681802     -1.207318     -0.393878
H       2.780618      0.422716     -1.059519
H       3.295764      0.117256      0.602556
