16
Extracted from Q-Chem output
C      -1.816341     -0.449177      0.376193
C      -0.994639      0.410962     -0.547902
C      -0.018200      1.413290      0.044374
C       0.497940      0.275246     -0.736516
C       2.198682     -0.419111      0.094277
O       0.953821     -1.290695     -0.223296
H      -2.056745     -1.410127     -0.085487
H      -1.293282     -0.642035      1.317209
H      -2.756900      0.040113      0.637982
H      -1.517625      0.716528     -1.449571
H       0.098718      2.414212     -0.356298
H       0.091477      1.357925      1.121376
H       0.899260      0.407085     -1.723435
H       3.058764     -1.055783     -0.132953
H       2.165877     -0.218837      1.169184
H       0.531694     -1.647656      0.567847
