15
Extracted from Q-Chem output
C      -1.821077     -0.159759     -0.163867
C      -0.600235      0.661430      0.166156
O      -0.263260      0.553973      1.562616
C       1.495524      0.357538      0.918951
C       1.330866     -0.976284      0.303218
C       0.737797      0.223114     -0.374948
O       1.237029      0.692305     -1.575562
H      -1.660271     -1.212562      0.072227
H      -2.686046      0.191385      0.401559
H      -2.050414     -0.066919     -1.228480
H      -0.762725      1.712568     -0.099537
H       0.834710      1.032753      1.729973
H       2.247935     -1.307391     -0.175854
H       0.762896     -1.751455      0.802341
H       0.994668      0.076163     -2.270203
