9
Extracted from Q-Chem output
C       0.200483      0.930217     -0.327464
C       1.301186      0.110440     -0.058660
N       1.104262     -1.189082     -0.263956
N      -0.076528     -1.653337      0.221241
N      -1.097808     -0.971633      0.443983
C      -1.038950      0.359085     -0.071919
H      -0.759879      1.208127      0.762809
H       2.319178      0.461620      0.061103
H      -1.964632      0.734244     -0.499457
