17
Extracted from Q-Chem output
C      -1.950230      1.548353      0.018820
C      -1.132541      0.324600      0.184409
C      -0.824925     -0.554246     -0.898852
C       0.601780     -0.901840     -1.085768
C       1.691051     -0.153976     -0.387792
C       1.969946     -0.577695      0.991933
C       2.165916     -0.948377      2.115192
H      -2.396113      1.877168      0.958345
H      -1.354486      2.389843     -0.364066
H      -2.743959      1.383614     -0.718964
H      -0.652523      0.131666      1.136642
H      -1.137419     -1.545613     -0.490156
H      -1.413861     -0.402538     -1.812477
H       0.830719     -1.927190     -1.364492
H       1.420242      0.911846     -0.358763
H       2.619119     -0.261824     -0.960066
H       2.347605     -1.274958      3.111479
