19
Extracted from Q-Chem output
C       2.549266     -0.271713     -0.444439
C       1.651354      0.722212      0.230947
C       0.328155      0.371597      0.593056
C      -0.989219      0.620564     -1.116182
C      -2.079588     -0.039104     -0.307105
C      -1.446296     -1.137199      0.569511
O      -0.040341     -0.908914      0.694899
H       2.953914     -1.020685      0.243805
H       2.010402     -0.821384     -1.223282
H       3.391004      0.230575     -0.923022
H       2.052229      1.614641      0.690898
H       0.529248      0.952168     -0.604289
H      -0.237382      1.106171      1.164852
H      -1.243677      1.631478     -1.439131
H      -0.664242      0.014556     -1.967003
H      -2.879534     -0.488556     -0.904168
H      -2.561627      0.705032      0.333137
H      -1.893504     -1.173902      1.566444
H      -1.532188     -2.123962      0.115472
