11
Extracted from Q-Chem output
N       1.183319      0.388312      0.939363
C       0.189576      1.385147      0.982624
C       0.610118     -0.015367     -0.300402
C      -0.252469     -1.208058     -0.483594
O      -1.147393     -1.072377      0.608078
C      -1.009209     -0.013308     -0.330286
H       1.005137     -0.307113      1.656085
H       0.448987      2.091676      0.170569
H       1.084798      0.371722     -1.195458
H      -0.266300     -2.012254     -1.199042
H      -1.811963      0.421240     -0.901023
