9
Extracted from Q-Chem output
N       1.803403      0.815925     -0.520423
C       1.834938     -0.419447     -0.149998
C       0.446917      0.002237     -0.016998
C      -0.924930     -0.375461     -0.296561
N      -0.469379      0.138848      1.034262
H       0.697847      1.244941     -0.530503
H      -1.603842      0.291046     -0.813444
H      -1.135259     -1.434735     -0.402385
H      -0.345785     -0.592744      1.727539
