12
Extracted from Q-Chem output
O       2.360091      0.712106     -0.254996
C       1.101691      0.555577     -0.201499
C       0.641156     -0.770242     -0.358074
C      -0.747357     -0.739385      0.270563
C      -1.054128      0.773873      0.260189
O       0.243082      1.448614      0.218146
H       0.760738     -1.186580     -1.353828
H       2.133241     -0.541398     -0.109426
H      -1.498422     -1.288279     -0.297302
H      -0.756666     -1.126449      1.291900
H      -1.560946      1.142066      1.149710
H      -1.606488      1.082185     -0.629324
