19
Extracted from Q-Chem output
C       3.030408      0.336772     -0.638165
C       1.564010      0.600555     -0.948959
C       0.579920      0.037726     -0.021094
C      -0.686513      0.768395     -0.027816
C      -1.919316      0.057542      0.483635
C      -2.117942     -1.398188      0.185608
C      -1.815496     -0.950710      1.583777
H       3.672682      0.614242     -1.476148
H       3.185650     -0.717322     -0.407572
H       3.345704      0.916685      0.230871
H       1.382175      1.644929     -1.253357
H       1.262461     -0.007588     -1.828270
H      -0.820684     -1.160466      1.955748
H      -0.896026      1.322241     -0.957926
H      -0.385213      1.552203      0.702023
H      -2.814147      0.670070      0.478736
H      -3.115388     -1.748470     -0.045366
H      -1.318313     -1.901935     -0.344956
H      -2.608782     -0.987625      2.318736
