19
Extracted from Q-Chem output
C       2.429737      0.503256     -0.772438
C       1.180065     -0.383368     -0.673519
C       0.591785     -0.118421      0.675105
C      -0.399661      1.048056      0.735344
C      -1.707958      0.294977      0.793160
C      -1.975286     -0.612130     -0.373666
C      -1.280413     -1.143439      0.820410
H       2.899279      0.383665     -1.749969
H       3.153292      0.241237     -0.000504
H       2.178550      1.559502     -0.652022
H       0.523566     -0.140465     -1.524040
H       1.477308     -1.430263     -0.766415
H      -0.065367     -1.168627      1.085057
H      -0.344491      1.703703     -0.141728
H      -0.236604      1.659816      1.625391
H      -2.548340      0.667988      1.365629
H      -3.001838     -0.941286     -0.486517
H      -1.454106     -0.472366     -1.313555
H      -1.681928     -1.934742      1.441849
