15
Extracted from Q-Chem output
C       2.360871      0.323425      1.054982
C       1.026915     -0.189637      0.660727
C       0.489014     -1.426554      0.585922
C      -0.860169     -1.255949      0.134810
C      -1.043442      0.072068     -0.030617
O       0.101397      0.733819      0.286481
C      -2.196782      0.897697     -0.464502
H       2.286334      0.999215      1.909471
H       2.831115      0.869554      0.234605
H       3.007494     -0.508829      1.329265
H       0.988871     -2.351733      0.823890
H      -1.596835     -2.023414     -0.041487
H      -2.488568      1.607114      0.312677
H      -1.959177      1.467807     -1.365128
H      -3.047917      0.253158     -0.679951
