15
Extracted from Q-Chem output
C       2.376817      0.800893      0.462185
C       1.069639      0.109633      0.493737
C       0.466305     -0.976135      0.673601
C      -0.689888     -1.690562      0.672761
C      -2.061078     -0.210106      0.315149
O      -3.019185     -0.548434      0.908443
C      -1.470053      0.771305     -0.447532
H       2.405968      1.597457      1.207057
H       2.539168      1.260105     -0.514285
H       3.194611      0.109263      0.660925
H      -1.107624     -2.010164      1.620659
H      -0.878632     -2.368271     -0.157000
H      -0.018102      0.711287      0.159861
H      -1.083893      0.474344     -1.414601
H      -1.927826      1.749064     -0.374087
