17
Extracted from Q-Chem output
C      -2.444941     -0.485462     -0.366694
C      -1.152954      0.281366     -0.649652
C      -0.014483     -0.343350      0.126039
O       0.479622     -1.441241     -0.286542
C       1.476860      1.021994     -0.278799
C       2.412135      0.329155      0.460790
O       2.734514     -0.886547      0.206629
H      -3.281291     -0.035925     -0.904146
H      -2.354081     -1.525962     -0.679809
H      -2.689561     -0.472557      0.698099
H      -0.919056      0.236737     -1.714858
H      -1.270743      1.328787     -0.364914
H      -0.086156     -0.183006      1.213943
H       1.773980     -1.350894     -0.123500
H       1.227876      2.030752      0.025289
H       1.362903      0.789757     -1.329086
H       2.808429      0.748516      1.389915
