14
Extracted from Q-Chem output
O       0.719422     -1.234484     -1.450641
C       0.289641      0.038126     -1.350754
C      -1.000012      0.181289     -0.591890
C      -0.851776     -0.242090      0.904682
O       0.526042     -0.393887      1.179807
C       1.255050      0.583291      0.546121
H       0.364331     -1.798427     -0.746864
H       1.144460      0.746604     -0.832396
H      -1.749608     -0.430868     -1.097235
H      -1.332059      1.217632     -0.650557
H      -1.326681     -1.191446      1.153501
H      -1.282635      0.532974      1.546896
H       0.993293      1.602010      0.855760
H       2.318015      0.366193      0.629228
