13
smiles: [C-:2]#[O+:3].[N:1]([C:6]([C:4](=[C:5]([H:10])[H:11])[H:9])([H:12])[H:13])([H:7])[H:8]
N        1.36424100       0.13347500       0.93447300
C        1.85083800      -0.06390400      -2.23909800
O        1.33901700       0.93042000      -2.34609100
C       -0.87790700      -0.61495800       0.34054900
C       -1.66769800      -0.55805400      -0.71878300
C       -0.04341300       0.51976300       0.85036700
H        1.47756500      -0.65770300       1.55542900
H        1.91555300       0.88941100       1.31816400
H       -0.82087400      -1.54076400       0.91095000
H       -1.74702900       0.34438500      -1.31608500
H       -2.26257700      -1.40798700      -1.03035600
H       -0.45753000       0.84934400       1.81640400
H       -0.12842600       1.36508400       0.16345500
