12
Extracted from Q-Chem output
N       1.903964     -0.390970      2.306855
C       0.917566      0.097043      1.945653
C       0.308785     -0.110868     -1.198663
C      -0.862040     -0.909688     -0.745052
N      -1.449837     -0.133470      0.306287
C      -0.569514      0.728171      0.686216
N       0.455724      0.856697     -0.384674
H       1.000653     -0.302724     -2.008318
H      -1.556758     -1.152588     -1.553248
H      -0.444458     -1.869265     -0.381493
H      -0.799539      1.613238      1.257785
H       1.256639      1.472838     -0.338826
