17
Extracted from Q-Chem output
C       2.256103      0.731691      0.173135
C       1.414680     -0.508070     -0.085580
C      -0.051272     -0.344335     -0.056346
C      -1.121792     -1.391338     -0.202768
C      -2.159507     -0.247522     -0.041906
C      -0.947696      0.690473      0.083074
C      -0.688082      2.062226      0.244966
H       2.042182      1.510778     -0.556457
H       3.316459      0.477666      0.125584
H       2.037647      1.155085      1.152626
H       1.657893     -0.949338     -1.061508
H       1.654167     -1.302329      0.633467
H      -1.123428     -1.900586     -1.169383
H      -1.117597     -2.149665      0.583900
H      -2.784932     -0.321814      0.848490
H      -2.795160     -0.079800     -0.912182
H      -1.659946      2.591595      0.267665
