17
Extracted from Q-Chem output
C       2.163737      0.607271      0.120639
C       1.233590     -0.585872     -0.019688
C      -0.140956     -0.233531     -0.495401
C      -1.192131     -1.265303     -0.709611
C      -1.843336     -0.383972      0.323832
C      -0.813567      0.941550     -0.140453
C      -0.859369      2.225243      0.023627
H       2.248869      1.147266     -0.822832
H       3.159607      0.280451      0.422094
H       1.791428      1.312905      0.864133
H       1.632059     -1.311876     -0.737454
H       1.156294     -1.132522      0.930116
H      -1.682098     -1.260228     -1.679810
H      -0.920605     -2.271665     -0.400313
H      -1.678629     -0.682852      1.353107
H      -2.838511     -0.001849      0.129542
H      -1.448960      2.629800      0.845190
