10
Extracted from Q-Chem output
C       2.455799     -0.434650     -0.009196
C       1.174809     -0.261442      0.139800
C      -0.106000      0.010157     -0.261404
C      -1.351464      0.752100     -0.169667
N      -1.128641     -0.438835     -1.028284
H       2.961956     -1.051268      0.733748
H       0.501975     -0.598116      1.067926
H      -1.363124      1.739723     -0.621529
H      -2.067213      0.587640      0.626927
H      -1.042427     -0.360185     -2.035386
