12
Extracted from Q-Chem output
N      -2.165816     -0.912749     -0.654476
C      -1.185386     -0.835834      0.310255
C       0.016905     -0.331002      0.172566
C       1.123965      0.361689      0.133610
O       2.373840     -0.126778     -0.149963
C       1.180415      1.829457      0.403224
O       0.231923      2.511513      0.672577
H      -2.836554     -1.653613     -0.559930
H      -1.890582     -0.715001     -1.600663
H      -1.485037     -1.219290      1.282580
H       2.306173     -1.074505     -0.287423
H       2.203094      2.250463      0.333748
