17
Extracted from Q-Chem output
C       1.847231     -0.559500      0.190674
C       0.514231      0.112852      0.467575
C       0.148347      1.291038     -0.458172
C      -1.359915      1.371621     -0.580645
C      -1.810875      0.180971     -0.001737
C      -0.715664     -0.807339      0.380020
O      -0.648230     -1.822476     -0.605807
H       1.879684     -0.979322     -0.816247
H       2.664112      0.159144      0.280260
H       2.037044     -1.374359      0.891782
H       0.525579      0.501293      1.492911
H       0.497299      1.116894     -1.485398
H       0.602241      2.236151     -0.156978
H      -1.911189      1.293153      0.613232
H      -2.858542     -0.113989     -0.001019
H      -0.906769     -1.336031      1.314326
H      -0.550899     -1.416162     -1.470849
