19
smiles: [C:1]([C@@:2]1([H:11])[C-:3]=[O+:4][C@:5]([C:6]([H:15])([H:16])[H:17])([H:14])[C:7]1([H:18])[H:19])([H:8])([H:9])[H:10].[H:12][H:13]
C       -2.35850700       0.25699000       0.40634000
C       -0.99944100      -0.31662400       0.77241500
C       -0.59725100      -1.50899800      -0.07030800
O        0.67910700      -1.43524400      -0.24951400
C        1.34647000      -0.26720200       0.37919600
C        2.39816800       0.24880100      -0.56920200
C        0.18656800       0.65228700       0.69739500
H       -3.12533000      -0.51605100       0.45575700
H       -2.34799100       0.65333900      -0.61136600
H       -2.63886900       1.06779800       1.08135400
H       -1.06046000      -0.75434000       1.78156100
H       -0.98948600      -0.69269000      -2.67666100
H       -0.86780400      -0.14275600      -3.16361000
H        1.80735200      -0.66267100       1.28864000
H        3.13107900      -0.52528400      -0.79711000
H        2.92086300       1.09494500      -0.11949100
H        1.94126200       0.58260500      -1.50250300
H        0.03549100       1.37131500      -0.11343800
H        0.34463300       1.21176800       1.61884100
