9
Extracted from Q-Chem output
C       2.154348     -0.390441     -0.254533
C       0.993430     -0.105251     -0.311109
C      -0.410873      0.242240     -0.381063
C      -1.440679     -0.705049      0.117906
O      -0.950742      0.814544      0.856609
H       3.184477     -0.655654     -0.204396
H      -0.620381      0.952596     -1.179844
H      -0.438112      0.459282      1.592596
H      -2.389148     -0.351511     -0.313159
