9
Extracted from Q-Chem output
C       2.166948     -0.510232      0.363699
C       1.101845     -0.134018     -0.031290
C      -0.174912      0.316567     -0.536238
C      -1.420687      0.017006      0.173485
O      -0.856268      1.311640      0.211968
H       3.112754     -0.842494      0.721842
H      -0.216631      0.457819     -1.612665
H      -1.371264     -0.540481      1.103579
H      -2.341783     -0.075808     -0.394379
