15
Extracted from Q-Chem output
C      -2.021095     -0.137958      0.241651
C      -0.634338      0.277833     -0.183119
C      -0.503777      1.658174     -0.716710
N       0.592291      2.160189     -1.099219
C       1.474435     -1.260625     -0.075471
N       2.435600     -1.304946      0.939067
C       0.403630     -0.516070     -0.101603
H      -2.714076     -0.096353     -0.603443
H      -2.020154     -1.152591      0.634914
H      -2.410065      0.531779      1.013763
H      -1.449991      2.215191     -0.752453
H       0.453875      3.111937     -1.429224
H       2.151795     -0.853380      1.793600
H       2.804725     -2.225978      1.111002
H       1.701491     -1.875148     -0.941971
