15
smiles: [C-:4]#[O+:5].[O:1]([C:2](=[C:3]([H:9])[H:10])[C:6]([C:7]([H:11])([H:14])[H:15])([H:12])[H:13])[H:8]
O        0.17617800      -0.65749700      -1.42383600
C       -0.09912000      -0.83262500      -0.10218100
C        0.64169900      -1.57731700       0.71306000
C        2.69643100       1.29991500       0.20388800
O        3.10040800       0.75961400      -0.69442800
C       -1.32507500      -0.07330200       0.29925300
C       -1.15839600       1.43786800       0.14879300
H        0.97700600      -1.13693500      -1.64890100
H        0.37408500      -1.68026900       1.75422100
H        1.52573200      -2.10018900       0.36567800
H       -0.34588000       1.80195600       0.78052600
H       -1.56909300      -0.32869800       1.33111100
H       -2.15594300      -0.41442600      -0.32578100
H       -0.92988000       1.70352600      -0.88355000
H       -2.07323300       1.95630800       0.43968800
