9
Extracted from Q-Chem output
N      -1.194285      0.095313      0.219695
C      -0.061221     -0.445632     -0.266549
C       1.228571     -0.016034     -0.119887
N       1.401239      1.059697      0.576065
N       1.679590      1.979697      1.157087
O      -0.313198     -1.551440     -0.974350
H      -2.078986     -0.325791      0.005665
H      -1.171790      0.943541      0.751607
H       0.539847     -1.878489     -1.282742
