9
Extracted from Q-Chem output
N      -1.396945      0.025506      0.228852
C      -0.269804     -0.481820     -0.269090
C       1.077914     -0.067826     -0.192830
N       1.521853      0.971254      0.424402
N       1.990916      1.855344      0.936601
O      -0.253198     -1.551703     -0.974882
H      -2.267879     -0.439848      0.047526
H      -1.395197      0.864465      0.776782
H       0.994557     -1.250341     -0.958342
