16
Extracted from Q-Chem output
C      -1.240939     -0.810438     -0.313849
C      -0.197235      0.297384     -0.180633
C      -0.800689      1.535244      0.485220
C       1.031463     -0.193249      0.548590
C       2.042769     -1.295321     -0.835864
O       2.069827     -0.704777     -1.840689
H      -2.116334     -0.463828     -0.866947
H      -1.581371     -1.143979      0.671066
H      -0.844232     -1.681738     -0.841564
H       0.118838      0.590231     -1.190534
H      -0.069726      2.343342      0.552591
H      -1.662036      1.904606     -0.077736
H      -1.137444      1.304922      1.499961
H       1.794279      0.573515      0.706998
H       0.796117     -0.674457      1.507183
H       1.807424     -1.606309      0.193069
