17
Extracted from Q-Chem output
C       2.266466      0.451134     -0.419530
C       1.114569     -0.524046     -0.296076
C       0.179875     -0.119150      0.831644
O      -0.892564     -1.093701      0.898320
C      -2.140910     -0.906446      0.583522
C      -2.495157      0.496983      0.174397
O       0.426224     -0.535814     -1.532652
H       2.938694      0.134756     -1.216231
H       2.833086      0.506202      0.511493
H       1.894970      1.448150     -0.664640
H       1.500361     -1.527688     -0.075964
H      -0.198809      0.888309      0.671815
H       0.686045     -0.171674      1.795988
H      -0.184254     -1.277230     -1.537762
H      -1.922526      0.807131     -0.707594
H      -3.555447      0.539982     -0.061865
H      -2.290342      1.215652      0.976958
