17
Extracted from Q-Chem output
C       2.094763      0.410513     -0.638975
C       1.012372     -0.552128     -0.189376
C       0.373089     -0.134215      1.139064
O      -0.821723     -0.911203      1.190065
C      -1.582655     -0.778308      0.086202
C      -2.273775      0.532757     -0.073553
O      -0.015532     -0.563517     -1.153652
H       2.533882      0.072454     -1.576655
H       2.888296      0.479292      0.108197
H       1.672316      1.404723     -0.795694
H       1.430490     -1.559316     -0.068212
H       0.164818      0.940261      1.152969
H       0.971965     -0.400604      2.008498
H      -0.864753     -1.298309     -0.913148
H      -1.765068      1.392711      0.368985
H      -2.477442      0.720817     -1.125902
H      -3.239850      0.414095      0.429525
