13
Extracted from Q-Chem output
C      -1.764064     -0.361380     -0.166702
N      -1.561159      0.727816      0.800824
C      -0.567768      0.482640     -0.204743
C       0.968697     -0.632142     -0.717279
C       1.963647      0.216505     -0.068299
O       0.808699      0.187425      0.756838
H      -1.615741     -1.382016      0.171024
H      -2.572625     -0.229711     -0.878804
H      -1.298709      0.388313      1.717704
H      -0.367799      1.277344     -0.905744
H       1.061191     -1.672587     -0.386878
H       2.787397     -0.254036      0.461169
H       2.200808      1.197538     -0.479018
