13
Extracted from Q-Chem output
C       2.012552     -0.110102      0.343049
C       0.876067     -0.690096     -0.456924
N       0.165383      0.260532     -1.198001
C      -1.012164      0.612747     -0.918320
C      -1.848934      0.165687      0.238355
O       0.640817     -1.870047     -0.529650
H       2.557412     -0.910615      0.837282
H       1.622997      0.589903      1.086051
H       2.677673      0.452570     -0.312754
H      -2.158578      1.033917      0.824900
H      -1.478638      1.330904     -1.596521
H      -2.759569     -0.306114     -0.137900
H      -1.330029     -0.545280      0.878632
