11
Extracted from Q-Chem output
O       2.406366     -0.868811     -0.057234
C       1.157673     -0.614083     -0.024473
C       1.023704      0.814474     -0.016593
C      -0.243216      1.257732      0.016947
N      -1.274313      0.319268      0.040219
C      -1.024930     -0.995483      0.029813
N       0.163850     -1.529551     -0.001890
H       2.424167      0.387859     -0.053692
H      -0.569195      2.290815      0.028574
H      -2.232163      0.626123      0.064989
H      -1.896118     -1.643444      0.049419
