13
smiles: [C:1]([N:2]=[C:3]=[O:4])([H:7])([H:8])[H:9].[C:5]([O:6][H:13])([H:10])([H:11])[H:12]
C        1.61020100       0.62648800      -0.43582600
N        1.20525500      -0.04254700       0.76674500
C        1.50550000      -0.12421000       1.91883800
O        1.70883700      -0.28135600       3.05804000
C       -2.17412500      -0.22064700      -0.52343900
O       -1.14996200      -1.15520600      -0.78915100
H        1.51044400       1.70802100      -0.33014400
H        2.64553400       0.38786500      -0.68447900
H        0.97277000       0.29976200      -1.25499700
H       -2.75964300      -0.48796700       0.36362500
H       -1.78462400       0.79584200      -0.39624500
H       -2.84030400      -0.22458700      -1.38546000
H       -0.54337600      -1.16610800      -0.04845900
