13
Extracted from Q-Chem output
C       2.197583      0.321504     -0.190306
N       0.747203      0.173512     -0.187532
C       0.068450     -0.093527      0.878784
O       0.028735     -0.278439      2.043118
C      -1.730998     -0.381890      0.127792
O      -2.244037     -0.196351     -1.183482
H       2.482899      0.934274     -1.043405
H       2.544824      0.804770      0.724193
H       2.686632     -0.650963     -0.278261
H      -0.473441     -0.252920     -0.453574
H      -2.185537      0.298994      0.848362
H      -1.925769     -1.412471      0.415936
H      -2.204844      0.737351     -1.401962
