15
Extracted from Q-Chem output
O       0.228411      1.206564      1.261766
C       0.645219      1.311428     -0.077307
C       0.950951     -0.061262     -0.658854
C      -0.145204     -1.059351     -0.308592
O       0.278993     -1.858267      0.827392
C      -1.282296     -0.672820      0.572858
C      -1.013606      0.536902      1.358041
H      -1.215795      0.377746      2.417933
H       1.528328      1.950166     -0.089797
H      -0.137738      1.809541     -0.671509
H       1.893355     -0.437379     -0.255134
H       1.062319      0.008472     -1.742987
H      -0.406454     -1.701208     -1.150490
H      -0.327763     -2.602330      0.905639
H      -1.833315      1.192810      0.990924
