15
Extracted from Q-Chem output
O      -0.164237      1.765537      0.837700
C       0.560391      1.322480     -0.293465
C       1.010198     -0.137731     -0.204646
C      -0.177289     -1.085410     -0.140537
O       0.288160     -2.411744     -0.020521
C      -1.161526     -0.708876      0.898139
C      -1.305439      0.516780      1.338429
H      -0.218995      0.753835      1.773557
H       1.435527      1.969184     -0.391097
H      -0.066036      1.463611     -1.183979
H       1.628933     -0.288233      0.684976
H       1.628769     -0.378295     -1.070493
H      -0.754952     -0.973103     -1.077266
H      -0.401753     -2.912483      0.422749
H      -2.076344      1.105460      1.806335
