14
Extracted from Q-Chem output
O       0.652601     -1.310416     -1.519984
C       0.395369      0.494026     -0.753708
C      -1.043701      0.419930     -0.375371
C      -1.038485     -0.252436      0.995489
O       0.194254      0.136729      1.587068
C       1.099167      0.506211      0.554246
H       1.501626     -1.615687     -1.184481
H       0.816115     -0.229685     -1.794119
H      -1.666186     -0.058600     -1.127690
H      -1.364901      1.466758     -0.288985
H      -1.084352     -1.342144      0.888585
H      -1.847192      0.073944      1.650179
H       1.447684      1.534505      0.724930
H       1.987685     -0.132504      0.564205
