14
Extracted from Q-Chem output
C      -1.373236     -0.868799     -0.395036
N      -0.381173      0.038592      0.163506
C      -0.831256      1.266403      0.650460
O      -0.104040      2.155819      0.992080
C       1.085981      0.012613     -0.769173
O       0.955925     -0.142610     -1.926488
C       1.963606     -0.152469      0.314069
H      -2.312218     -0.792913      0.154518
H      -1.545208     -0.643108     -1.449344
H      -1.009553     -1.893319     -0.317714
H      -1.932627      1.336880      0.718240
H       2.971413     -0.485917      0.093705
H       0.589783     -0.509485      0.758740
H       1.878320      0.630212      1.063637
