15
Extracted from Q-Chem output
C       2.232638     -0.642692     -0.202256
N       1.001209     -0.174887     -0.134447
C       0.709607      1.184007     -0.152792
C      -0.643034      1.217430     -0.209808
C      -1.100092     -0.154681     -0.052413
C      -2.504589     -0.618035      0.109063
N      -0.104543     -0.988414      0.055205
H       2.947633     -0.184225     -0.863416
H       2.376031     -1.671519      0.108738
H       2.857346      0.903197      0.698830
H       2.187692      1.430374      0.413708
H      -1.276516      2.089763     -0.162048
H      -3.103440     -0.349112     -0.762964
H      -2.962601     -0.144206      0.980084
H      -2.532985     -1.697781      0.245538
