14
smiles: [C:1](=[O:2])([H:7])[H:8].[C@@:3]12([H:12])[C:4]([H:9])([H:10])[C@:5]1([H:11])[C:6]2([H:13])[H:14]
C        2.36372400      -0.04738900       0.58642600
O        2.37080200       1.10090300       0.92007400
C       -0.52149000      -0.65646900      -0.34536800
C       -1.01780300      -0.07121500       0.93319400
C       -1.70694800       0.22023900      -0.35680500
C       -0.50920800       0.58861000      -1.16561900
H        2.13481600      -0.86252700       1.29945300
H        2.58550000      -0.35590700      -0.45329700
H       -0.44128800       0.71607100       1.41772600
H       -1.52408200      -0.74432600       1.61749300
H       -2.71736000       0.01314200      -0.66565900
H       -0.41858300      -1.68587400      -0.64364200
H        0.10899000       1.42783500      -0.84866800
H       -0.58767500       0.46863000      -2.24138500
