14
Extracted from Q-Chem output
C       1.457319      0.010349      0.505035
C       0.201853     -0.216654     -0.307609
C      -0.919823      1.128670     -1.354226
C      -0.856611     -1.219343      0.172887
O      -1.835073     -0.224785      0.468216
C      -0.991133      0.832220      0.018983
H       1.237338      0.066720      1.572080
H       1.950399      0.936385      0.205005
H       2.162160     -0.807464      0.341432
H       0.432536     -0.340556     -1.371650
H      -0.154782      1.920625     -1.441196
H      -0.560843     -1.771936      1.069860
H      -1.197983     -1.913730     -0.597360
H      -0.769192      1.543881      0.816854
