16
Extracted from Q-Chem output
C       1.849254     -0.811601      0.106095
C       0.910129     -0.414869      1.192386
N       0.513572      0.832233      1.375442
C      -0.218590      1.208315      0.125701
O       0.020553      2.222001     -0.492048
C      -1.040094      0.096750     -0.154713
C      -1.831773      0.034062     -1.419450
H       1.875521     -0.073015     -0.692269
H       1.581151     -1.783680     -0.305586
H       2.854255     -0.901037      0.538071
H       0.818157     -1.107303      2.030296
H       0.159915      1.139999      2.267019
H      -1.389957     -0.479807      0.691770
H      -1.294293      0.518279     -2.235968
H      -2.803310      0.532533     -1.328194
H      -2.029949     -1.004063     -1.696757
