15
Extracted from Q-Chem output
C       0.595166      1.501480     -0.187326
C       0.798881      0.204432      0.629300
C      -0.190632     -1.965312     -0.508384
O      -1.341221     -2.307426     -0.450924
C      -0.678387      0.339274      1.065679
C      -0.665833      0.642761     -0.454855
C       0.292316     -0.554620     -0.638245
H       0.443549      2.412481      0.392615
H       1.270601      1.664634     -1.028805
H       1.656258     -0.063158      1.244916
H       0.618694     -2.727494     -0.482153
H      -0.901856      1.184660      1.717497
H      -1.198284     -0.560532      1.387241
H      -1.516930      0.890468     -1.084732
H       0.981428     -0.496644     -1.488649
