15
Extracted from Q-Chem output
C       0.642783      1.426111      0.087743
C       1.349997      0.143083      0.248596
C      -0.103292     -1.876032     -0.155360
O      -0.995796     -1.944081      0.647318
C      -1.348993      0.278305      0.768249
C      -0.574010      0.610512     -0.394770
C       0.458832     -0.585190     -0.699011
H       0.474804      2.103460      0.938054
H       0.999215      2.028410     -0.760529
H       2.414444     -0.016381      0.379693
H       0.378152     -2.800090     -0.515820
H      -0.952732      0.509739      1.746864
H      -2.389279     -0.011931      0.705299
H      -1.158052      0.935538     -1.260422
H       0.834597     -0.770974     -1.722039
