16
Extracted from Q-Chem output
C       1.388838     -0.313161      0.669980
C       0.232002     -0.668643     -0.263600
C      -1.128378     -0.330994      0.279520
C      -1.396947      0.284853      1.420260
C      -0.229719      0.896016     -2.199947
C       0.472550     -0.069965     -1.628648
H       1.289942     -0.816392      1.633435
H       1.431911      0.764179      0.842690
H       2.340185     -0.616409      0.229349
H       0.246902     -1.759002     -0.400931
H      -1.957771     -0.641741     -0.351986
H      -2.419760      0.471371      1.724194
H      -0.619225      0.623655      2.094727
H      -1.089136      1.344704     -1.714418
H       0.038459      1.276702     -3.177881
H       1.333262     -0.475794     -2.156107
