16
Extracted from Q-Chem output
C       1.595045     -0.305518      0.743815
C       0.593795     -0.896408     -0.225847
C      -0.838652     -0.510242     -0.095015
C      -1.426948      0.580041      0.577997
C      -0.469928      0.918092     -1.233404
C       0.411241     -0.208185     -1.582723
H       1.468425     -0.715549      1.748534
H       1.507959      0.780611      0.809688
H       2.606340     -0.528218      0.402565
H       0.720110     -1.972659     -0.323277
H      -1.521811     -1.195403     -0.582719
H      -2.482012      0.763994      0.449503
H      -0.874982      1.184684      1.280721
H      -0.012953      1.769669     -0.747047
H      -1.271109      1.197909     -1.910527
H      -0.017036     -0.873538     -2.329059
