9
Extracted from Q-Chem output
O       0.505814      0.481830      1.189507
C       0.675537      0.782130     -0.427756
O       0.618545     -0.573723     -0.891728
C      -0.616513     -1.003264     -0.209009
C      -0.610575      0.355554      0.477680
N      -0.638388      1.327037     -0.440584
H       1.592511      1.294278     -0.700440
H      -1.431135     -1.156126     -0.908833
H      -0.396261     -1.861329      0.417340
