10
Extracted from Q-Chem output
C      -0.733540     -0.761025     -0.012679
C      -0.315019      0.693336      0.185629
N       1.115237      0.574009     -0.089930
C       1.551278     -0.642067     -0.395552
O       0.495257     -1.451347     -0.361152
H      -1.133110     -1.220690      0.890284
H      -1.440272     -0.900147     -0.829667
H      -0.799884      1.373513     -0.516451
H      -0.495013      1.050430      1.200944
H       1.746136      1.352695     -0.054754
