10
Extracted from Q-Chem output
C      -0.691842     -0.750776      0.011985
C      -0.439753      0.744645      0.136303
N       0.945409      0.889701     -0.379885
C       1.481258     -0.318313     -0.493304
O       0.637519     -1.305191     -0.203250
H      -1.100684     -1.215095      0.906991
H      -1.309568     -1.010133     -0.848318
H      -1.108295      1.353151     -0.470030
H      -0.478801      1.110765      1.162837
H       2.055827      0.569956      0.193345
