11
Extracted from Q-Chem output
C       2.762887     -0.525265     -0.230759
C       1.576962     -0.409064     -0.112538
C       0.145760     -0.284801      0.029309
C      -0.403583      1.053509      0.039690
C      -1.742929      0.918013      0.182043
N      -2.697699      0.155760      0.306097
N      -0.638924     -1.294493      0.143616
H       3.816761     -0.633950     -0.336804
H       0.149027      1.969169     -0.045046
H      -2.703596      1.606830      0.257774
H      -0.157657     -2.184848      0.125602
