10
smiles: [C:3](=[C:4]=[C:5]([N+:7]#[C-:6])[H:10])([H:8])[H:9].[O+:1]#[C-:2]
O       -3.19743700      -0.32532800       0.41746100
C       -2.34285700      -0.59205400       1.09615300
C        0.67399300      -1.35815400      -1.01941000
C        0.87635200      -0.27543000      -0.33901100
C        1.11073300       0.80623500       0.35269500
C       -0.61345500       2.64298500       0.73834200
N        0.15756600       1.78949700       0.54673200
H        0.87156300      -1.39269700      -2.08489000
H        0.29326100      -2.25438300      -0.54288100
H        2.07289500       0.98910300       0.81498500
