10
Extracted from Q-Chem output
O      -2.190582     -0.747545      0.686339
C      -1.280216     -0.155492      0.188968
C      -0.089946     -0.822463     -0.474523
C       1.179833     -0.283216     -0.004609
C       2.203949      0.178093      0.404219
C      -1.282700      1.325317      0.159868
N      -1.304683      2.470799      0.111116
H      -0.184310     -0.661443     -1.554254
H      -0.168576     -1.892977     -0.283301
H       3.117230      0.588927      0.766176
