13
smiles: [C-:6]#[O+:7].[O:1]([C@@:2]([C:3]([H:10])([H:11])[H:13])([C:4](=[O:5])[H:12])[H:9])[H:8]
O       -0.37820800       1.12456900       0.70323900
C       -0.86665900      -0.07718900       0.18567900
C       -1.03522800       0.00409500      -1.32646200
C        0.03943200      -1.22422800       0.55926200
O        1.02281600      -1.07221600       1.23323100
C        2.57456700       1.08582200      -0.95143800
O        3.12506100       1.73283000      -0.21629800
H        0.39970100       0.90444200       1.23290700
H       -1.84545900      -0.31297900       0.63611100
H       -1.44860500      -0.92333600      -1.72893900
H       -1.71635100       0.81826100      -1.57037700
H       -0.25059400      -2.22311500       0.18051600
H       -0.07461200       0.20359400      -1.80381700
