13
Extracted from Q-Chem output
O      -1.218234      0.951420      1.162743
C      -1.153832     -0.201944      0.398207
C      -0.759121     -0.009218     -1.072693
C       0.174278     -0.799134      0.244976
O       1.255277     -0.200195      0.617194
C       1.926714      0.480250     -0.891208
O       2.985862      0.902761     -0.883166
H      -0.327771      1.123284      1.493493
H      -1.987264     -0.871112      0.585954
H      -1.222428     -0.688449     -1.777693
H      -0.866252      1.041387     -1.331548
H       0.218619     -1.845325     -0.064377
H       0.641720      0.159657     -1.327298
