13
Extracted from Q-Chem output
O       0.503189     -1.358849      2.951734
C       1.165288     -1.076700      1.794970
C      -1.186704     -0.200458     -1.672259
C      -0.262766      0.740172     -0.967428
C      -0.864353      1.228533     -1.999816
C       0.909489     -0.096859      0.975825
C       0.653613      0.877512      0.137525
H      -0.209938     -0.725282      3.067539
H       1.968873     -1.778598      1.606586
H      -2.147855     -0.446907     -1.221253
H      -0.770635     -1.000804     -2.283616
H      -1.051449      2.046513     -2.672255
H       1.141887      1.841934      0.256796
