12
Extracted from Q-Chem output
O      -1.638380     -1.139624     -0.107992
C      -0.778429     -0.885926      1.014653
C      -0.411752      0.408349      1.099534
C       0.903683      0.711248      0.416205
C       0.310947      0.390193     -1.013221
C      -0.639753     -0.689560     -0.959706
N       0.414264     -1.088423     -1.494919
H      -0.115485     -1.722906      1.206006
H      -1.190767      1.111474      0.812311
H       1.699946      0.005574      0.654278
H       1.266242      1.734047      0.499166
H       0.273839      1.169704     -1.764929
