12
Extracted from Q-Chem output
O      -1.448560     -1.260196     -0.082648
C      -0.774217     -0.844208      1.002783
C      -0.466242      0.494177      1.055131
C       0.915826      0.705002      0.463902
C       0.257736      0.473678     -0.883027
C      -0.443108     -0.743066     -1.110208
N       0.267779     -1.270927     -1.935618
H      -0.131648     -1.598896      1.459620
H      -1.224965      1.182465      0.684703
H       1.617650     -0.083407      0.735493
H       1.373622      1.687612      0.551157
H       0.122557      1.285282     -1.587348
