15
Extracted from Q-Chem output
O       2.199406      0.251181     -0.660940
C       1.240318      0.373079      0.366519
C       0.087326      1.331446     -0.030155
C      -0.786377      0.104168     -0.037905
O      -2.017916     -0.044404      0.893817
C      -0.404163     -1.073034     -0.827983
C       0.221993     -0.800423      0.541039
H       2.636466     -0.595247     -0.542202
H       1.727226      0.646950      1.306588
H      -0.169032      2.026130      0.767780
H       0.184044      1.869358     -0.974027
H      -2.760182     -0.476427      0.448547
H      -1.084799     -1.915465     -0.865327
H       0.113029     -0.884942     -1.765290
H      -1.390439     -0.725664      1.404476
