12
Extracted from Q-Chem output
O       1.154574      1.947419      0.825005
C       0.493569      1.027412      0.465004
N       0.817558      0.191571     -0.703595
C       0.341425     -1.128678     -0.229857
C      -1.090762     -0.588985     -0.182914
O      -1.540599     -0.546007      1.177434
C      -0.945492      0.624803      0.683939
H       1.720221      0.317086     -1.147806
H       0.781053     -1.410500      0.729712
H       0.503496     -1.890365     -0.988243
H      -0.393797      0.196677     -1.264745
H      -1.613003      1.479920      0.617636
