17
Extracted from Q-Chem output
O       2.566297      0.084363     -0.674147
C       1.614388     -0.575227      0.127669
C       0.247047     -0.575847     -0.510180
C      -0.923561     -1.131222      0.295508
C      -1.788501      0.037128     -0.076607
C      -0.404249      1.585728      0.570872
O      -0.282098      0.760911     -0.734710
H       2.282521      0.995326     -0.786886
H       1.552250     -0.136894      1.129171
H       1.947595     -1.610860      0.230742
H       0.308417     -1.017446     -1.507187
H      -0.734756     -1.170824      1.365353
H      -1.303405     -2.088261     -0.062999
H      -2.417976      0.510308      0.658354
H      -2.247260     -0.024566     -1.063548
H       0.609163      1.935040      0.816407
H      -0.950150      2.457385      0.199546
