15
Extracted from Q-Chem output
C      -1.340055      1.264970     -0.669862
C      -0.390329      0.155310     -0.368606
C       1.092219      0.084789     -0.761453
C       1.336188     -0.618334      0.571991
N       2.405743     -0.916380      1.157743
C      -0.126704     -0.583075      0.903945
N      -0.809540     -1.236758     -0.245101
H      -0.895907      2.231502     -0.426480
H      -1.600934      1.271068     -1.730869
H      -2.262997      1.161104     -0.095129
H       1.590644      1.055034     -0.782574
H       1.314384     -0.479417     -1.666548
H      -0.607333     -0.521521      1.871812
H       2.218534     -1.292292      2.086103
H      -1.801791     -1.247894     -0.021075
