16
Extracted from Q-Chem output
C      -1.291454      1.427557     -0.097535
C      -0.037269      0.625941     -0.088715
C       0.157319     -0.776646      0.034302
C      -0.926639     -1.749569      0.401833
C       1.639129     -1.076751      0.122026
C       2.164926      0.192002     -0.071927
N       1.182284      1.154804     -0.152655
H      -1.993317      1.044581     -0.840387
H      -1.099796      2.477303     -0.323976
H      -1.790186      1.379805      0.873887
H      -0.568291     -2.766633      0.248295
H      -1.838401     -1.605150     -0.182850
H      -1.183222     -1.647826      1.458152
H       0.711204     -1.120880     -0.967620
H       3.197564      0.503904     -0.129774
H       1.351558      2.138039     -0.304060
