21
Extracted from Q-Chem output
C       1.978115     -0.887791      1.029638
C       1.035922     -0.390654     -0.971311
C       0.010758      0.568016     -0.557178
C       0.483644      1.989033     -0.348546
C      -1.270818      0.376427     -1.361805
C      -1.302400      0.175257      0.113339
C      -1.561516     -1.182944      0.708345
H       1.714337     -1.938716      1.076177
H       3.025349     -0.740118      1.296415
H       1.327561     -0.276262      1.645098
H       2.060488     -0.475367     -0.117104
H       0.644691     -1.412181     -1.015359
H       1.054028      2.329978     -1.213729
H       1.135503      2.051819      0.527365
H      -0.351354      2.674196     -0.186590
H      -1.703609      1.270398     -1.792396
H      -1.340665     -0.501588     -1.992973
H      -1.746975      0.991539      0.674706
H      -1.196577     -1.242859      1.736038
H      -1.079827     -1.976933      0.136195
H      -2.632921     -1.395350      0.722258
