7
Extracted from Q-Chem output
O       0.713059      2.320580      0.318412
C      -0.153920      1.490886      0.306076
C       0.051749      0.100171      0.660444
N       0.267854     -0.980418      0.244063
N       0.640520     -2.104190     -0.084299
H      -1.204145      1.727471      0.058882
H      -0.170136     -2.665395     -0.345524
