14
Extracted from Q-Chem output
C      -1.232164     -0.844788      0.582017
N      -0.527823      0.249240     -0.024468
C      -1.244845      1.670438     -0.565722
O      -2.407272      1.694574     -0.404893
C       0.751129      0.327787     -0.254774
O       1.185491      1.404761     -0.810248
C       1.723160     -0.751653      0.085712
H      -2.287549     -0.562430      0.606520
H      -1.138083     -1.768446      0.005683
H      -0.903097     -1.030106      1.607482
H       0.196875      1.950191     -0.909343
H       1.686811     -0.963313      1.155636
H       2.727079     -0.443412     -0.193917
H       1.459549     -1.669410     -0.442715
