14
smiles: [C:2]1[C@@:3]2([H:10])[C@:4]3([H:11])[C:5]([H:12])([H:13])[N:6]2[C@:7]13[H:14].[O:1]([H:8])[H:9]
O        3.01148600      -0.13304400       0.66618700
C        0.61991600       0.56325100      -0.90285400
C       -0.41508700      -0.42336500      -1.14004300
C       -0.29869800      -0.28230100       0.45686700
C       -1.82522400      -0.33285800       0.45738800
N       -1.63133900       0.43271900      -0.81472700
C       -0.47074800       1.18559300      -0.17945600
H        3.84671200      -0.30964700       0.23137300
H        2.43120600       0.19630200      -0.02123400
H       -0.46158900      -1.35630000      -1.69063000
H        0.44494200      -0.66682700       1.14528700
H       -2.28419700      -1.31359300       0.32077400
H       -2.33534400       0.23019600       1.24086400
H       -0.58029400       2.10849100       0.37912900
