16
Extracted from Q-Chem output
C      -1.858450     -0.236682      0.893267
C      -1.761160      0.297969     -0.524443
C      -0.446007      0.437235     -1.208489
C       0.823993      0.215470     -0.801871
C       1.164962     -0.221558      0.517462
C       2.621928     -0.229207      0.748700
H      -1.436920     -1.237224      0.971168
H      -2.909329     -0.267488      1.191467
H      -1.303481      0.383703      1.593756
H      -2.229449      1.290139     -0.585597
H      -2.375643     -0.314880     -1.197809
H      -0.557342      0.795461     -2.233010
H       1.603651      0.408514     -1.550987
H       2.932075     -0.979286      1.477854
H       3.269697     -0.252818     -0.141305
H       2.788429      0.738830      1.250161
