12
Extracted from Q-Chem output
C      -1.702678      0.177562     -0.036158
C       0.513236      0.156686     -1.239468
C      -0.261484      0.642005     -0.050951
O       0.424725      0.160052      1.141135
C       1.490979     -0.529370      0.764229
O       2.293525     -1.071856      1.452189
N       1.493396     -0.499080     -0.669943
H      -1.756808     -0.911014     -0.080983
H      -2.196996      0.518063      0.872741
H      -2.220411      0.586533     -0.902845
H      -0.204249      1.734672     -0.027255
H       2.232260     -0.976639     -1.164906
