12
Extracted from Q-Chem output
C      -1.461481     -0.011717     -0.305144
C       0.202512      0.210730     -1.033793
C       0.036293      1.057437      0.051954
O       0.799188      0.744445      1.130971
C       1.497937     -0.414249      0.797231
O       2.274013     -0.947850      1.524461
N       1.079653     -0.725832     -0.468469
H      -1.524620     -1.006856     -0.730590
H      -1.671048     -0.088098      0.766495
H      -2.156218      0.652982     -0.805351
H      -0.448563      2.020170      0.091847
H       1.477831     -1.503548     -0.961828
