14
Extracted from Q-Chem output
O       2.002992      1.110334     -0.002047
C       1.906925     -0.287126     -0.158604
C       0.596760     -0.847298      0.395267
C      -0.601536     -0.338530     -0.322880
C      -2.624987      0.821627     -0.014631
O      -1.481185      0.329969      0.347626
H       1.208505      1.501827     -0.375428
H       2.012934     -0.570520     -1.215415
H       2.753359     -0.715860      0.380758
H       0.642173     -1.943068      0.342856
H       0.510095     -0.576378      1.450159
H      -0.831362     -0.570182     -1.359064
H      -2.963708      0.689637     -1.033238
H      -3.154595      1.358925      0.751464
