15
Extracted from Q-Chem output
O       0.865903      0.503089      0.772185
C       1.552573     -0.092521     -0.237983
N       0.686595     -0.910935     -0.928221
C      -0.490142     -1.166595     -0.129996
C      -0.513456      0.104143      0.728993
C      -1.358520      1.218551      0.147427
N       2.771733      0.075456     -0.508924
H       1.110016     -1.636424     -1.478811
H      -1.388027     -1.254124     -0.743825
H      -0.396444     -2.066568      0.488541
H      -0.810704     -0.108764      1.756481
H      -2.416514      0.951961      0.191664
H      -1.211940      2.139327      0.712023
H      -1.087906      1.401253     -0.894277
H       3.186454      0.755048      0.117572
