15
Extracted from Q-Chem output
O       1.465322     -0.527430      1.116623
C       1.428908     -0.152324     -0.076019
N       0.518231     -0.906655     -0.951077
C      -0.650504     -1.220950     -0.138765
C      -0.881219      0.049917      0.649158
C      -0.666166      1.277783      0.005858
N       1.858870      0.958142     -0.611341
H       0.952236     -1.731426     -1.339697
H      -1.501468     -1.459990     -0.784138
H      -0.517904     -2.030492      0.583133
H      -1.026801      0.032721      1.721668
H      -1.881717      0.737219      0.196869
H      -0.682040      2.202010      0.569680
H      -0.517597      1.297430     -1.064878
H       2.428106      1.424184      0.094283
