10
Extracted from Q-Chem output
N       2.761389     -0.490792     -1.104159
C       1.733108     -0.222309     -0.668115
C       0.452253      0.072449     -0.134387
C       0.044198      1.238869      0.342816
O      -1.277773      1.154862      0.785360
C      -1.800289     -0.047417      0.627070
C      -0.708310     -0.869281      0.006035
H       0.522889      2.199502      0.446720
H      -1.071434     -1.277741     -0.942913
H      -0.508066     -1.733270      0.648250
