17
Extracted from Q-Chem output
C      -2.099021     -0.297620      0.299146
C      -0.696619      0.155842      0.637511
O       0.049094     -1.149548      1.260892
C       0.885047     -1.394941      0.313505
C       0.674199     -0.798908     -1.013680
C       0.252832      0.515425     -0.411649
C       1.233346      1.634385     -0.181664
H      -2.691526      0.579551      0.035723
H      -2.108582     -0.974805     -0.555260
H      -2.578269     -0.792067      1.145655
H      -0.688900      0.822823      1.499940
H       1.716801     -2.044302      0.588652
H       1.601326     -0.768537     -1.586280
H      -0.077947     -1.332786     -1.615052
H       0.776582      2.614898     -0.351761
H       1.673003      1.666648      0.828110
H       2.061786      1.562925     -0.890748
