15
Extracted from Q-Chem output
C       2.169712     -0.005539     -0.097728
C       0.871822     -0.729912      0.103496
C      -0.347366     -0.198687     -0.003202
N      -0.536562      1.123052     -0.454534
O      -1.502290      1.822537      0.309947
C      -1.607491     -0.973611      0.220004
H       2.134263      1.023955      0.272134
H       2.976466     -0.505905      0.438636
H       2.461875      0.037097     -1.151770
H       0.315005      1.664821     -0.386041
H       0.928695     -1.791498      0.314346
H      -2.162408      2.079293     -0.337466
H      -2.176735     -0.557567      1.052001
H      -2.243423     -0.935725     -0.668233
H      -1.376538     -2.014352      0.440967
