15
Extracted from Q-Chem output
C       2.013395      0.206385      0.077656
C       0.731307     -0.546487     -0.070473
C      -0.610053     -0.121108     -0.043633
N      -1.177270      1.130438      0.214652
O      -0.178420      2.039223      0.546258
C      -1.693162     -1.179074     -0.030508
H       1.886123      1.169256      0.559956
H       2.711128     -0.393555      0.669270
H       2.500712      0.372331     -0.890212
H      -0.552180      0.369648     -1.094810
H       0.831613     -1.593011     -0.339885
H      -0.626225      2.884981      0.470864
H      -2.622575     -0.774016     -0.428099
H      -1.399074     -2.051494     -0.612916
H      -1.867994     -1.485433      1.000815
