11
smiles: [C:1]([N:2]=[C:3]=[N:4][H:10])([H:7])([H:8])[H:9].[C:5](#[N:6])[H:11]
C       -2.37938500       0.08845100      -0.26470500
N       -1.13536100       0.40316000      -0.93124500
C       -0.08189600       0.73009700      -0.44236500
N        1.05271200       0.94114900      -0.03623100
C        3.11942400      -1.39787600       0.69840600
N        3.83971000      -2.23768000       0.98799300
H       -3.13013300       0.83261500      -0.53245800
H       -2.73249500      -0.88148600      -0.61433700
H       -2.27887000       0.05938200       0.82254200
H        1.33046600       1.90127200       0.10801100
H        2.44565400      -0.61350500       0.43012400
