16
Extracted from Q-Chem output
C      -1.764229      0.030859     -0.731349
C      -0.443447     -0.421574     -1.211411
O      -0.080264      1.902309      0.902375
C       0.279228     -1.525194     -0.640647
C       0.866851     -0.307854      0.101214
O       0.358036      0.031630      1.182332
N       2.079012      0.243974     -0.308708
H      -1.596734      0.783154      0.059641
H      -2.354736     -0.787346     -0.316975
H      -2.318325      0.517312     -1.534617
H      -0.009429      0.072553     -2.071608
H      -0.027991      2.115589      1.838645
H      -0.258823     -2.194860      0.019581
H       1.039153     -2.013982     -1.242330
H       2.087098      1.226132     -0.056913
H       2.322170      0.096514     -1.274722
