15
Extracted from Q-Chem output
C      -1.783096     -1.033000      0.761123
C      -0.599422     -0.535408     -0.023948
C      -0.393263      0.847519     -0.480396
N       0.285218      0.424550      0.638384
C       1.730758      0.259932      0.623541
C       2.216258      0.350512     -0.816368
N       1.464238      0.680666     -1.693955
H      -2.194117     -0.232334      1.376638
H      -1.503163     -1.862114      1.415821
H      -2.566290     -1.387514      0.087269
H      -0.103307     -1.296724     -0.629949
H       0.663072      0.897865     -2.261270
H      -1.065606      1.698507     -0.499524
H       2.215611      1.072509      1.168180
H       2.020294     -0.685603      1.081290
