14
Extracted from Q-Chem output
C       1.333481     -0.096391     -0.155975
C       0.474051     -0.072282      1.059147
C      -0.731737      0.788805      0.748035
O      -0.707850      1.849163     -0.136847
C      -0.700306     -0.637291      0.395066
O      -0.627648     -1.252861     -1.493901
H       1.944636     -0.991089     -0.226539
H       0.264520     -0.750357     -1.365480
H       1.876412      0.820626     -0.382128
H       0.783945     -0.288106      2.080423
H      -1.432178      0.998351      1.552864
H       0.038286      1.692894     -0.729553
H      -1.377115     -1.450301      0.602049
H      -1.216192     -0.633932     -1.944671
