13
smiles: [C:1]([C:2][H:10])([H:7])([H:8])[H:9].[C:3]1([H:11])([H:12])[N:4]=[C:5]([H:13])[O:6]1
C        1.69145300       1.09451000      -0.12889200
C        1.34389400      -0.29443600       0.09840300
C       -1.45078700      -1.34352600      -0.05806300
N       -2.16393800      -0.60693100       0.98396800
C       -1.51304700       0.39521100       0.53679400
O       -0.76749000      -0.11342500      -0.47323800
H        1.58394300       1.54487500      -1.12141400
H        1.44548100       1.78713100       0.67610800
H        2.78189900       0.86332400      -0.00418000
H        1.42885000      -0.80442700      -0.88125700
H       -2.07990900      -1.72846700      -0.85921000
H       -0.73757900      -2.08103900       0.30704300
H       -1.48317000       1.44301000       0.81650400
