14
Extracted from Q-Chem output
C       1.821068      0.181498      0.662035
O       1.732421      1.469672      0.481416
C       0.398342     -0.268497      0.141431
C      -0.851103     -0.313524      0.792153
C      -1.635253      0.123018     -0.399113
C      -0.281296      0.144320     -1.168474
H       1.876077     -0.194679      1.710641
H       2.586182     -0.372424      0.075357
H      -1.109181     -0.602773      1.806083
H       0.137130     -1.405437      0.320990
H      -2.049777      1.124528     -0.239347
H      -2.432056     -0.533612     -0.748058
H       0.040968      1.131532     -1.483905
H      -0.190860     -0.567393     -1.987845
