11
Extracted from Q-Chem output
N      -1.640019     -0.302021     -0.404355
C      -0.838889      0.424497      0.397888
O      -1.201940      1.319747      1.126869
C       0.607888      0.005488      0.438978
C       1.310407      0.142021     -1.167237
O       1.079506     -1.081335     -0.795578
H      -1.227936     -0.911026     -1.089203
H      -2.585136      0.014654     -0.529727
H       0.809230     -0.798653      1.155461
H       1.280126      0.827108      0.727195
H       2.415040      0.343842     -1.157296
