12
Extracted from Q-Chem output
C      -1.259991     -0.477029     -0.581787
C      -0.447577     -0.160051      0.623949
O      -1.050085     -0.312591      1.724102
C       0.930662      0.282706      0.593730
C       1.589653      0.492932     -0.542808
O      -0.416397     -0.053545      2.885309
H      -0.796005     -1.283135     -1.153517
H      -2.259062     -0.783375     -0.280074
H      -1.336527      0.395931     -1.232954
H       1.380755      0.429966      1.566237
H       1.134648      0.351050     -1.516626
H       2.620643      0.823168     -0.532393
