14
Extracted from Q-Chem output
C      -1.521888     -0.357972      1.133696
C      -0.365299      0.054955     -1.815319
O      -0.667046      0.775113      1.080805
C       0.539035      0.655791      0.500430
C       1.203304     -0.540732      0.068953
C       0.797019      0.381100     -1.130194
H      -2.405084     -0.032456      1.678795
H      -1.044683     -1.179739      1.676276
H      -1.785264     -0.673608      0.122001
H      -0.368264      0.593866     -2.777923
H       1.152936      1.511692      0.751802
H       2.272402     -0.614851      0.218896
H       0.663958     -1.476523      0.080002
H       1.603540      1.019182     -1.491639
