12
smiles: [C:3]([O:4][H:12])([C:5]#[N:6])([H:10])[H:11].[N:1]([C:2][H:9])([H:7])[H:8]
N       -2.24129700      -1.32011900       0.35677900
C       -1.00280000      -1.00537000       0.09189400
C        1.41828400       1.41566000       0.08109300
O        1.00806300       0.68994900       1.20772800
C        1.82855700       0.54999400      -1.03919900
N        2.11845200      -0.13501000      -1.91187800
H       -2.71826800      -0.86287700       1.12048000
H       -2.80258700      -2.00399500      -0.14101000
H       -0.70281600      -1.62910700      -0.77156500
H        0.64321100       2.09759300      -0.28578800
H        2.27512800       2.01845600       0.38267800
H        0.25303000       0.14421000       0.97699200
