12
Extracted from Q-Chem output
N      -1.418196     -0.456454      0.688856
C      -0.592316     -0.015948     -0.424345
C       0.798398      0.329087      0.130241
O       1.300095     -0.727447      0.897604
C       1.724446      0.617294     -0.974884
N       2.407835      0.869243     -1.860009
H      -1.856977      0.317274      1.168114
H      -2.141308     -1.094341      0.394038
H      -0.478875     -0.844030     -1.125602
H      -0.991863      0.841711     -0.975836
H       0.726744      1.248443      0.730710
H       0.522017     -1.084833      1.351115
