15
Extracted from Q-Chem output
C      -1.012997      0.935610      0.332565
O      -1.060052      1.235623     -1.076839
C      -0.645216      0.128870     -1.729887
C      -0.247883     -0.875448     -0.958925
C      -0.324231     -0.437282      0.484272
C       1.057817     -0.347419      1.133819
O       1.911803      0.552093      0.465999
H      -2.040421      0.925264      0.700801
H      -0.458474      1.736612      0.821700
H      -0.692007      0.194133     -2.808392
H       1.877052      0.346962     -0.473777
H       0.105260     -1.834731     -1.305157
H      -0.935261     -1.117367      1.084835
H       0.966892      0.021310      2.158401
H       1.501215     -1.351549      1.181342
