15
Extracted from Q-Chem output
C      -1.067131      0.801182      0.413613
O      -1.063424      1.148373     -1.036114
C      -0.372735      0.310937     -1.662103
C       0.113994     -0.824315     -0.914762
C      -0.250470     -0.484203      0.534817
C       1.114000     -0.083284      1.190795
O       1.739843      0.729935      0.329973
H      -2.117750      0.755660      0.693230
H      -0.553399      1.645614      0.872776
H      -0.232026      0.508823     -2.722254
H       1.220349     -0.725244     -0.987455
H      -0.233709     -1.767424     -1.344764
H      -0.809796     -1.280711      1.029879
H       0.864724      0.365534      2.180768
H       1.650485     -1.031560      1.428365
