15
Extracted from Q-Chem output
C      -1.257897     -1.304105      0.557570
C      -0.403705     -0.127335      0.272580
C      -0.436639      1.000711     -0.639059
N      -0.470671      1.240661      0.824409
C       0.776946      0.129958     -0.603890
O       0.884962     -0.690578     -1.716294
N       2.054302      0.477170     -0.071012
H      -2.313494     -1.023255      0.597084
H      -1.129441     -2.043537     -0.234198
H      -0.990772     -1.767645      1.509304
H       1.653526     -1.246559     -1.559349
H      -1.136232      1.327745     -1.390529
H      -1.444619      1.409297      1.078313
H       1.927351      0.901972      0.838918
H       2.512919      1.153758     -0.669119
