15
Extracted from Q-Chem output
O       2.606793      0.530129      0.535830
C       1.708693     -0.410541     -0.052761
C       0.310889     -0.077111      0.325588
C      -0.541007      0.650206     -0.524592
C      -1.969733      0.719525     -0.243768
C      -1.546372     -1.563655     -0.022073
O      -1.659177     -2.473819     -0.694342
H       3.502267      0.202890      0.429767
H       1.947304     -1.422839      0.297286
H       1.810228     -0.405598     -1.146078
H       0.093068     -0.075971      1.388080
H      -0.728498      1.756474     -0.189213
H      -0.274126      0.676602     -1.579184
H      -2.641356      1.128561     -0.990258
H      -2.278480      0.801531      0.790152
