14
Extracted from Q-Chem output
C       1.204261     -1.142423      0.191386
C       0.278990      0.025374     -0.028175
C       0.769084      1.490401     -1.145940
O       0.058661      0.320391     -1.405095
C      -1.044440     -0.043485      0.749257
O      -1.069090     -0.541166      1.851994
N      -2.096026      0.495893      0.113607
H       2.134900     -0.995668     -0.355351
H       1.417194     -1.262175      1.251680
H       0.723571     -2.051863     -0.170597
H       0.722870      0.998385      0.409193
H       1.846163      1.186448     -1.197316
H      -2.981999      0.526333      0.584179
H      -1.988804      0.869127     -0.812584
