12
Extracted from Q-Chem output
C      -0.925079      0.215194      0.964626
N       0.220453      0.238572      0.066972
C       0.124293      0.217174     -1.395997
C       0.743989     -0.993945     -0.838018
C       1.531568      0.055975      0.504852
N       2.439132      0.212810      1.221354
H      -0.643359     -0.320150      1.869434
H      -1.753899     -0.296006      0.474598
H      -1.212717      1.235409      1.217756
H       0.723137      0.962916     -1.908893
H      -0.920468      0.198802     -1.693318
H       0.055322     -1.826443     -0.683179
