14
Extracted from Q-Chem output
C      -1.646630      0.165713      0.215938
C      -0.197259     -0.205373      0.010423
N       0.153939     -1.684271     -0.067212
C       0.793865      0.607739      0.764010
C       1.726414      1.345880      0.185380
C       0.154647     -0.946543     -1.206736
O       0.263852     -1.020464     -2.390588
H      -1.809244      1.206446     -0.066085
H      -1.920956      0.053845      1.268233
H      -2.307770     -0.458487     -0.387237
H      -0.529642     -2.412146      0.098513
H       0.703654      0.578464      1.847881
H       2.423747      1.932600      0.770291
H       1.823306      1.387103     -0.894168
