14
Extracted from Q-Chem output
C      -1.858841      0.091140      0.172268
C      -0.380599      0.081509      0.041170
N       0.455537     -1.229667      0.299386
C       0.698162      0.613036      0.842064
C       1.700452      0.775650     -0.150288
C       0.593595     -0.403314     -0.986100
O       0.608139     -0.777179     -2.136608
H      -2.245403      1.086341     -0.049696
H      -2.178050     -0.187000      1.179948
H      -2.298225     -0.604970     -0.543595
H      -0.242480     -1.980042      0.246674
H       0.744498      0.616360      1.924395
H       2.753042      0.640276      0.085213
H       1.491119      1.569923     -0.861324
