12
Extracted from Q-Chem output
C      -0.532456      0.266463      2.061122
N      -0.474907     -0.077902     -1.000817
C       0.553733      0.447166     -1.920567
C       0.896421     -0.796416     -1.219317
C       0.429609     -0.356072      0.059811
N       0.536100     -0.351385      1.295580
H      -1.268363      0.785986      1.438897
H      -1.046105     -0.503389      2.639950
H      -0.097248      0.971979      2.769960
H       1.059343      1.368208     -1.646449
H       0.262372      0.370988     -2.962471
H       0.963743     -1.794967     -1.626350
