12
Extracted from Q-Chem output
C      -0.676880      0.439531      1.670511
N      -0.818459     -0.292618     -0.808991
C       0.152169      0.442839     -1.566079
C       0.514618     -0.839248     -0.922792
C       1.190383     -0.680427      0.364393
N       1.374363     -0.375319      1.474094
H      -0.235903      1.118531      0.972874
H      -0.883585     -0.582902      1.441491
H      -1.138883      0.866797      2.559894
H       0.582363      1.367867     -1.172456
H       0.026984      0.444983     -2.648161
H       0.720054     -1.747498     -1.478694
