18
smiles: [C:1]([C:2]([H:10])([H:11])[H:17])([H:7])([H:8])[H:9].[C:3]([C:4]([H:13])([H:14])[H:15])(=[O+:5][C-:6]([H:16])[H:18])[H:12]
C       -1.20367200      -2.75331900       0.45794100
C       -0.89261900      -1.30654200       0.09839200
C        0.59023400       1.54061800      -0.63653100
C       -0.45541400       2.56664100      -0.40524500
O        1.39341200       1.26121900       0.32689100
C        2.38431300       0.41708900       0.39104400
H       -0.61070300      -3.44710300      -0.14120200
H       -0.98692000      -2.95698400       1.50845200
H       -2.25634800      -2.98734800       0.28750200
H       -1.48534000      -0.61268600       0.69769100
H       -1.10952900      -1.10281700      -0.95202400
H        0.72098000       1.00957700      -1.57392300
H       -1.46423700       2.16120600      -0.53671600
H       -0.35760800       3.41391900      -1.09214100
H       -0.37721600       2.94927000       0.61281600
H        2.89562000       0.38827700       1.33580100
H        0.16007800      -1.07274400       0.26866400
H        2.62979100      -0.18123900      -0.47509400
