16
Extracted from Q-Chem output
C       1.502262     -0.751308      0.954603
C       0.637002     -0.764633     -0.263752
C       0.411848      1.258074     -1.171348
C      -0.351073      1.267678     -0.067663
C      -1.504350      0.329842      0.147179
N      -1.831318     -0.655854     -0.869951
C      -0.830023     -0.978190      0.120872
H       1.060751     -0.421537      1.904882
H       2.452948     -0.245277      0.787100
H       1.749207     -1.817152      1.069520
H       1.357604      1.784012     -1.184747
H       0.089898      0.845681     -2.115315
H       0.002246      1.784935      0.818598
H      -2.300657      0.614788      0.823199
H      -1.403575     -0.465782     -1.769252
H      -1.049207     -1.789104      0.809831
