11
smiles: [H:10][H:11].[O:1]=[C:2]1[C:3]([H:8])=[C:4]([H:9])[N:5]=[C:6]=[N:7]1
O        2.51295900      -1.27507000      -0.04839700
C        1.52711500      -0.62129700      -0.03066000
C        1.38235100       0.84196000      -0.03857900
C        0.18453000       1.46251900      -0.01580100
N       -1.05232500       0.76992700       0.01791600
C       -0.63980700      -0.39789100       0.01770400
N        0.16442300      -1.29153500       0.00647500
H        2.30103700       1.40832900      -0.06336000
H        0.08370200       2.53929800      -0.02190300
H       -3.04165500      -2.11670600       0.10116400
H       -3.39760100      -1.46270900       0.10136600
