12
Extracted from Q-Chem output
O       2.556170      0.408903     -0.330513
C       1.560982      0.492382      0.606741
C       0.298823      0.162708      0.399710
C      -0.546826     -0.365600     -0.728373
C      -1.670392     -0.267207      0.316869
O      -0.746722      0.229626      1.309498
H       1.906891      0.862660      1.561757
H       2.192408      0.083511     -1.156891
H      -0.309374     -1.375433     -1.063427
H      -0.652663      0.293094     -1.590527
H      -2.114597     -1.213591      0.629295
H      -2.453210      0.462720      0.104861
