18
smiles: [C:1]([C:2]([C:3][H:12])([H:10])[H:11])([H:7])([H:8])[H:9].[C:4]([O:5][C:6]([H:16])([H:17])[H:18])([H:13])([H:14])[H:15]
C       -1.04997200      -1.81100800       1.01604600
C       -1.49830500      -0.77318100       0.03711400
C       -1.04134100      -0.64759900      -1.19914000
C        0.30023400       1.71725600       0.49390400
O        0.76715000       0.45968400       0.08885700
C        1.98911400       0.53785500      -0.59275100
H       -0.28574900      -2.45986500       0.58599200
H       -0.63939600      -1.34770800       1.91688900
H       -1.88927900      -2.43475000       1.33463100
H       -2.25823500      -0.07820800       0.38726100
H       -1.40550700       0.12629600      -1.86383600
H       -0.28302600      -1.31725500      -1.59234800
H        0.12947500       2.38006200      -0.36552900
H        1.00850900       2.21012900       1.17399800
H       -0.64397500       1.56738900       1.01608800
H        2.77472600       0.97622400       0.03791900
H        2.27981500      -0.47599000      -0.86535700
H        1.90362600       1.14119100      -1.50697100
