18
Extracted from Q-Chem output
C      -0.858832     -2.008940      0.476101
C      -1.500676     -0.672180      0.086979
C      -0.599963      0.331293     -0.574907
C       0.141102      2.187917     -0.064413
O       0.605388      0.586898      0.373461
C       1.865576      0.119224     -0.071271
H      -0.440217     -2.513206     -0.399140
H      -0.054407     -1.860120      1.200410
H      -1.585481     -2.683477      0.935768
H      -1.965737     -0.230290      0.975681
H      -2.318888     -0.849485     -0.619666
H      -0.145748     -0.083699     -1.483828
H       0.084374      2.478779     -1.105292
H       1.045599      2.602053      0.408912
H      -0.749452      2.470920      0.476954
H       2.623355      0.394084      0.663272
H       1.814720     -0.967649     -0.164492
H       2.121978      0.551246     -1.044423
