13
smiles: [N:1](=[C:2]([H:9])[H:11])[H:8].[O:3]=[C:4]([C:5]([C:6]#[N:7])([H:12])[H:13])[H:10]
N       -2.16648300       0.21382000      -0.95147900
C       -2.77631000      -0.68503300      -0.31180700
O        0.22920600      -0.97496900       1.40152100
C        0.70202000      -0.24304000       0.58565100
C        2.11104900       0.32447400       0.72718800
C        2.72760700       0.61569500      -0.56058900
N        3.18133400       0.83603600      -1.59006100
H       -2.76848600       0.62916800      -1.66121400
H       -2.25061400      -1.21600900       0.48252500
H        0.13727000       0.08583100      -0.30731900
H       -3.81468100      -0.98076600      -0.49308600
H        2.03577400       1.25411900       1.30027000
H        2.72237900      -0.37018500       1.30349700
