13
Extracted from Q-Chem output
N      -2.660888     -0.258983     -0.658956
C      -1.713445     -0.615303      0.009412
O      -0.819908      0.570959      1.232953
C       0.013051      0.473819      0.238827
C       1.452632      0.080781      0.586319
C       2.280467     -0.132024     -0.594112
N       2.890497     -0.298202     -1.551020
H      -2.707043      0.476291     -1.341209
H      -1.519399     -1.391292      0.731884
H      -0.035832      1.228301     -0.567728
H      -0.395214     -0.517507     -0.492941
H       1.865285      0.893632      1.189451
H       1.445881     -0.815413      1.208139
