12
Extracted from Q-Chem output
C       1.436386      0.635950     -0.425896
O       0.662113      0.580495      0.802977
C       0.922891     -0.603031      0.099237
C       0.253993     -1.791516     -0.200781
C      -1.990693      0.627447      0.031236
O      -1.858870     -0.103844     -0.910770
H       0.921296      1.091972     -1.265722
H       2.476137      0.914004     -0.291634
H       1.649162     -1.379517      0.564816
H      -0.442946     -2.004951      0.627190
H      -2.130337      0.244516      1.057506
H      -1.991557      1.727051     -0.080101
