11
Extracted from Q-Chem output
N       0.999216      0.852520      0.782346
C       0.803665      0.386874     -0.474337
O       0.357778     -0.977993     -0.602645
C      -0.804815     -0.999068      0.178409
C      -1.143396      0.458050      0.206784
O      -0.550055      1.106698     -0.716218
H       1.888495      0.513517      1.146487
H       1.495203      0.563056     -1.302419
H      -0.692900     -1.429951      1.173952
H      -1.587012     -1.540082     -0.368674
H      -2.010694      0.897688      0.691448
