16
Extracted from Q-Chem output
C      -2.242092     -0.188706     -0.105080
C      -0.753298     -0.488533     -0.188707
C       0.132322      0.791039     -0.262518
C       1.541654      0.511815      0.050351
O       2.207085     -0.131613     -0.973892
C      -0.223931     -1.304962      0.960024
N       0.891698     -1.070092      1.390666
H      -2.565678      0.405718     -0.961748
H      -2.474748      0.370410      0.804091
H      -2.820884     -1.111586     -0.089532
H      -0.559158     -1.106527     -1.073222
H       0.040141      1.193592     -1.275306
H      -0.254255      1.533320      0.439338
H       1.737426     -0.585960      1.646534
H       2.111454      1.312566      0.527015
H       3.146264     -0.162769     -0.789442
