13
Extracted from Q-Chem output
C      -1.225857     -0.677494     -0.101658
C       0.030082      0.153148     -0.015457
C       1.299347     -0.638941      0.164693
C      -0.039097      1.520888      0.543392
O       0.085470      1.079579     -1.134365
H      -1.422334     -1.147929      0.863470
H      -2.080128     -0.054975     -0.367593
H      -1.121489     -1.468460     -0.846822
H       1.266321     -1.176580      1.114480
H       2.163697      0.023874      0.179090
H       1.419626     -1.369250     -0.638537
H      -1.081902      1.844594      0.636232
H       0.671499      1.852710     -0.621972
