12
smiles: [C-:1]1([H:7])[C@:2]2([H:9])[C:3]3=[O+:4][C@:5]2([H:11])[C@@:6]13[H:12].[H:8][H:10]
C        0.75559500      -0.71897800      -0.23265100
C       -0.41118500      -0.76121500       0.57271400
C       -0.58642800       0.87437400       0.40346000
O       -1.94424700       0.85718900      -0.17378700
C       -1.22405100      -0.20392900      -0.66949900
C        0.22545300       0.38362100      -0.94898300
H        1.71033000      -1.22107400      -0.21030800
H        2.04275100       0.90858900       1.57532700
H       -0.76117600      -1.38764700       1.38033500
H        1.37879300       1.24435100       1.54639800
H       -1.65052500      -0.90308700      -1.37766400
H        0.55744700       0.98724200      -1.78118800
