17
Extracted from Q-Chem output
C      -2.468959     -0.437206      0.663685
C      -1.151279      0.096808      0.146667
O      -0.062259     -0.484614      0.859438
C       1.095858     -0.343780      0.048493
C       0.512570     -0.288453     -1.372269
C      -0.891925      0.152946     -1.290337
C       1.895433      0.896878      0.414731
H      -3.296620      0.057717      0.158345
H      -2.531239     -1.509280      0.474950
H      -2.548989     -0.272220      1.737746
H      -1.140859      1.212637      0.274472
H       1.707782     -1.234189      0.209136
H       1.119214      0.189568     -2.141661
H       0.313507     -1.314283     -1.740635
H       1.318489      1.809152      0.244694
H       2.181472      0.864176      1.466267
H       2.804156      0.955397     -0.188247
