12
Extracted from Q-Chem output
O      -1.332434      1.041865      0.351750
C      -0.938808     -0.215252     -0.119141
C       0.197680     -0.200262     -1.148172
C       0.223615     -0.806057      0.511585
C       1.067555     -0.017383      1.382022
O       2.175643      0.413356      1.144291
H      -2.051847      1.369537     -0.191456
H      -1.784616     -0.857175     -0.361803
H       0.080873     -0.861674     -2.000182
H       0.592980      0.791241     -1.335233
H       1.044997     -0.847668     -0.584493
H       0.612924      0.078231      2.389777
