11
Extracted from Q-Chem output
N       1.959354      0.088574     -0.371505
C       0.773454     -0.226710      0.144129
C       0.401810      1.138949      0.159021
C      -0.594521      0.349329     -0.472154
C      -1.101939     -0.752981      0.497672
O       0.212892     -1.213286      0.915997
H       1.899204      0.164125     -1.379663
H       0.770292      2.074211      0.535232
H      -0.968515      0.417578     -1.489764
H      -1.601974     -1.549077     -0.049961
H      -1.691771     -0.433580      1.357123
