14
Extracted from Q-Chem output
O       2.214346     -0.880017     -0.595165
C       1.051464     -0.181294     -0.686265
C       0.472652      0.411558      0.432182
C      -0.730640      1.299892      0.385487
C      -1.351376     -0.021940      0.601692
O      -1.829830     -0.729475     -0.336480
H       2.322371     -1.208523      0.301033
H       0.057930     -1.306726     -1.171812
H       0.950806      0.273994     -1.664407
H       0.934267      0.231224      1.395353
H      -0.950549      1.738222     -0.584163
H      -0.797195      2.013954      1.200067
H      -1.418602     -0.383989      1.632675
H      -0.809863     -1.276771     -0.971523
