14
Extracted from Q-Chem output
C      -0.556866     -1.867554      0.008912
C      -0.666699     -0.483805     -0.582953
C      -1.210464      0.667953      0.260187
O       1.677462      2.260167      0.627135
C       0.198490      0.599913     -0.120886
C       1.405782      1.107077     -0.054535
H      -0.275294     -1.811585      1.062403
H       0.203894     -2.456176     -0.508167
H      -1.505987     -2.403518     -0.063517
H      -0.953110     -0.457544     -1.631431
H      -1.846454      1.401445     -0.222770
H      -1.474392      0.451130      1.290494
H       2.608872      2.464153      0.543978
H       2.250665      0.629204     -0.542697
