14
Extracted from Q-Chem output
C      -0.625340     -1.754382      0.117244
C      -0.503506     -0.396344     -0.558113
C      -0.838460      0.741630      0.258649
O       0.806072      1.861853      0.372058
C       0.996031     -0.131110     -0.948544
C       1.570765      0.924285     -0.433931
H      -0.045276     -1.775791      1.042368
H      -0.218221     -2.517733     -0.545711
H      -1.664587     -1.999821      0.350007
H      -1.056751     -0.375761     -1.498130
H      -1.358853      1.591628     -0.160145
H      -0.892165      0.645444      1.337730
H       1.206326      1.942829      1.248992
H       2.592781      1.254455     -0.571443
