16
Extracted from Q-Chem output
C      -2.120595      0.409317     -0.224524
C      -0.915256     -0.477731     -0.504576
C       0.294051     -0.121000      0.322801
C       1.593646     -0.858535      0.074533
C       2.429549      0.401684      0.320169
O       0.795904      1.220175     -0.041747
H      -1.897157      1.454464     -0.447924
H      -2.426673      0.344053      0.822663
H      -2.973839      0.117973     -0.838064
H      -1.153393     -1.525220     -0.294050
H      -0.639607     -0.424856     -1.561378
H       0.051138     -0.102737      1.388152
H       1.786634     -1.649372      0.800959
H       1.616262     -1.288825     -0.934049
H       2.913826      0.703217     -0.619544
H       0.691223      1.825430      0.695438
