14
Extracted from Q-Chem output
C      -1.240386      0.047625     -0.644274
C      -1.315975      1.386314     -0.088647
C      -0.607033      0.209220      0.710360
C       0.601515     -0.482556      0.581894
C       1.984370     -0.443185      0.192100
O       1.501063     -0.976023      1.456318
H      -0.478866      0.041679     -1.427913
H      -1.025144     -1.479714     -0.545984
H      -2.144776      1.702802      0.535888
H      -0.773919      2.206130     -0.552098
H      -1.215607     -0.102022      1.553249
H      -0.202188     -1.785857     -0.200583
H       2.370153     -1.187835     -0.494493
H       2.546035      0.480502      0.283270
