12
Extracted from Q-Chem output
C      -1.749528     -0.189202      0.183793
C      -0.271289     -0.220888      0.030200
C       0.622703      0.980429     -0.053006
N       1.948649      0.419374     -0.203029
C       1.755817     -0.839588     -0.193491
N       0.421957     -1.297043     -0.053147
H      -2.033023      0.375779      1.074585
H      -2.142948     -1.200719      0.259385
H      -2.210319      0.309179     -0.672400
H       0.375214      1.626673     -0.900780
H       0.565254      1.600984      0.846691
H       2.555296     -1.564988     -0.288841
