12
Extracted from Q-Chem output
C      -1.809294     -0.202900      0.078526
C      -0.326416     -0.133000     -0.052787
C       0.492790      0.995716      0.000494
N       1.857480      0.544245     -0.211296
C       1.689874     -0.780940     -0.304637
N       0.432697     -1.217898     -0.247958
H      -2.240466      0.784716      0.240901
H      -2.088341     -0.848128      0.912686
H      -2.247187     -0.629243     -0.825221
H       0.254147      2.045167     -0.081236
H       1.382120      0.888512      0.904693
H       2.536220     -1.446061     -0.400537
