10
Extracted from Q-Chem output
O       2.589612      0.011119     -0.332775
C       1.434962      0.098785     -0.114426
O       0.772944      1.263070      0.138869
C      -0.547654      1.354351     -0.169927
C      -0.736493     -0.795872      0.312559
O       0.611433     -0.966578      0.004525
H      -1.106035      0.353658      0.550748
H      -0.686096      0.983911     -1.204271
H      -0.954279     -1.241550      1.285311
H      -1.369128     -1.195823     -0.474687
