9
Extracted from Q-Chem output
N       1.579255     -0.079651      0.205126
C       0.530635     -0.406671     -0.499274
N      -0.382934      0.515463     -0.987665
C      -1.219579      0.364196      0.000339
N      -0.895560     -0.626762      0.915654
O      -0.072350     -1.476953      0.036583
H       1.890349      0.859988     -0.026230
H       0.530331     -0.095133      1.151523
H      -2.060716      1.020414      0.184549
