17
Extracted from Q-Chem output
C       2.215336      0.522401     -0.956341
C       1.072724     -0.267392     -0.668567
C       0.647426     -0.230387      1.466176
O      -0.696391      0.135981      1.278773
C      -1.114649     -0.290669      0.025109
C      -2.462658      0.280312     -0.304474
O      -0.159071      0.195354     -0.913759
H       3.120989      0.022398     -1.261675
H       1.736164      0.260451      0.373300
H       2.066868      1.569402     -1.173719
H       1.190669     -1.350065     -0.633212
H       1.101106      0.460924      2.181650
H       0.750261     -1.269529      1.804013
H      -1.104653     -1.393499     -0.026846
H      -2.407252      1.368535     -0.300182
H      -2.792043     -0.061618     -1.284957
H      -3.183171     -0.041675      0.446439
