16
smiles: [C:1]([C@@:2]1([H:10])[C:3]([H:11])([H:12])[C:4]([H:13])([H:14])[O+:5]=[C-:6]1)([H:7])([H:8])[H:9].[H:15][H:16]
C        1.70239000       0.13727700       0.04818300
C        0.25137800       0.58044900      -0.04544000
C       -0.50576600       0.15022800      -1.31105800
C       -1.92712400       0.04256300      -0.80789200
O       -1.77278000      -0.15983200       0.64497100
C       -0.60198600       0.11805900       1.11540500
H        2.29210900       0.54565500      -0.77455400
H        2.14213900       0.46882000       0.98865700
H        1.77628400      -0.95173200       0.00917200
H        0.20952500       1.67648200       0.05945500
H       -0.40709300       0.86130500      -2.13020200
H       -0.13873100      -0.81867800      -1.65751300
H       -2.49816700      -0.80338700      -1.18426300
H       -2.50803000       0.95750500      -0.93357500
H        0.87420800      -1.45050500       2.96294800
H        1.36631000      -1.95575400       3.20148100
