16
Extracted from Q-Chem output
C       1.868712      0.267515      0.115222
C       0.381424      0.558660      0.101070
C      -0.421568     -0.065425     -1.046480
C      -1.829520     -0.106488     -0.470751
O      -1.658093     -0.047965      0.971252
C      -0.398283      0.154613      1.330476
H       2.367409      0.744503     -0.730135
H       2.326600      0.642636      1.031812
H       2.053894     -0.807485      0.055889
H       0.240946      1.648739      0.072385
H      -0.375304      0.501739     -1.976451
H      -0.046920     -1.074129     -1.238678
H      -2.380989     -1.018769     -0.699887
H      -2.434149      0.755767     -0.759058
H       0.113221     -0.808013      1.997026
H       0.275480     -1.473892      1.385596
