16
smiles: [C:1](=[C:2]([C:4]([C:5](=[O:6])[H:16])([H:14])[H:15])[H:10])([H:8])[H:9].[C:3]([H:7])([H:11])([H:12])[H:13]
C       -0.88776000      -1.68885600      -0.83485600
C        0.19373400      -0.92949900      -0.89061100
C       -1.68427000       2.16753000       0.54439500
C        0.99000800      -0.51007400       0.30312100
C        2.47392100      -0.74698100       0.17934500
O        3.02363600      -1.17036700      -0.79838500
H       -1.71535000       1.24008700      -0.02527000
H       -1.26772800      -2.07352300       0.10624300
H       -1.43374900      -1.95931900      -1.73007200
H        0.55531400      -0.57497000      -1.85063700
H       -0.91617400       2.82093000       0.13344200
H       -2.65201000       2.66338200       0.48559500
H       -1.45329100       1.94629100       1.58538100
H        0.87344200       0.56614200       0.49294400
H        0.64226100      -1.00431500       1.21627200
H        3.06077300      -0.48193300       1.08417700
