15
Extracted from Q-Chem output
C      -2.424395     -0.563337     -0.412174
N      -1.210546     -0.147812     -0.061328
C      -0.665117     -0.505658      1.226745
N       0.486078     -0.068942      1.457844
C       0.901181      0.694957      0.277270
C       2.220960      0.159779     -0.270013
C      -0.266994      0.581892     -0.646401
H      -2.812790     -0.293612     -1.379469
H      -2.975912     -1.167544      0.286396
H       1.063573      1.726089      0.619330
H      -1.274055     -1.114236      1.884035
H       3.008331      0.244931      0.479590
H       2.114674     -0.887707     -0.556429
H       2.516346      0.729168     -1.152648
H      -0.391253      0.989283     -1.635085
