12
Extracted from Q-Chem output
C       1.575979     -0.475578     -0.097842
C       0.144199     -0.524883      0.276071
C      -1.418256      1.616333      0.189063
O      -2.121089      1.413967     -0.765890
C      -0.832682     -0.998998     -1.024257
O      -0.994584     -2.078874     -0.620706
H       2.073370      0.030113      0.739522
H       2.061779     -1.452837     -0.184400
H       1.739783      0.090589     -1.015624
H      -0.061849     -1.132697      1.163610
H      -0.475382      2.190015      0.112710
H      -1.711729      1.310709      1.210132
