11
Extracted from Q-Chem output
N      -2.012182     -0.301374     -0.352413
C      -0.665217     -0.029719     -0.125514
C       0.535716     -0.826404     -0.099252
N       1.570745      0.017610      0.002838
N       1.208177      1.314162      0.045116
C      -0.088483      1.321609     -0.053264
H      -0.899074     -0.237373      0.982858
H      -2.129902     -1.310220     -0.416365
H       0.654605     -1.898078     -0.094271
H       2.532657     -0.215895      0.172748
H      -0.647179      2.244648     -0.042801
