14
Extracted from Q-Chem output
N       2.974810      0.115863      0.468176
C       1.992231      0.611532      0.030234
O       0.771523     -1.125780     -0.303351
C      -0.436893     -0.699349     -0.843772
C      -1.519316     -0.558916      0.251393
C      -0.829403      0.767415      0.673060
C       0.033598      0.660756     -0.569618
H       3.209545     -0.850245      0.642738
H      -0.692602     -1.095615     -1.830790
H      -1.524683     -1.369495      0.978880
H      -2.524750     -0.396804     -0.139694
H      -0.287475      0.749479      1.614741
H      -1.463276      1.656001      0.650722
H       0.271966      1.463134     -1.250769
