15
Extracted from Q-Chem output
C      -1.286512     -1.223394      0.543616
N      -0.081996     -0.512592      0.196013
C       1.122142     -0.988506      0.021088
C       2.054757      0.029282     -0.275534
C       1.443502      1.270378     -0.313360
C       0.020378      0.971059      0.076098
N      -1.057796      1.477674     -0.738626
H      -2.110652     -0.809292     -0.037135
H      -1.173894     -2.282694      0.316157
H      -1.515136     -1.110720      1.606293
H       1.296974     -2.056954      0.113247
H       3.095989     -0.184471     -0.479415
H      -0.082062      1.351940      1.101207
H      -1.329885      2.394805     -0.416322
H      -0.727093      1.594133     -1.688213
