15
Extracted from Q-Chem output
C      -1.307550     -1.195319      0.451203
N      -0.081368     -0.506459      0.130624
C       1.171375     -1.002382      0.155925
C       2.072633     -0.041643     -0.224757
C       1.403855      1.175623     -0.583513
C       0.029645      0.851012     -0.243602
N      -1.128223      1.497090     -0.729001
H      -2.080326     -0.889056     -0.254207
H      -1.154082     -2.269562      0.361289
H      -1.644617     -0.973282      1.467108
H       1.340499     -2.019743      0.486622
H       3.140428     -0.197087     -0.271818
H       0.601589      1.442711      0.629584
H      -1.731232      1.863997     -0.007930
H      -0.858698      2.238584     -1.357982
