16
Extracted from Q-Chem output
C      -1.363312      1.271110     -0.566443
C      -0.380734      0.317545      0.059461
C      -0.725118     -1.120567      0.071407
O      -0.254573     -1.815489      1.268901
N       0.945873      0.608085     -0.299008
C       2.062890     -0.006705     -0.040737
O       2.178122     -1.101542      0.678149
H      -1.120286      2.314169     -0.340197
H      -2.359038      1.103071     -0.153859
H      -1.455456      1.188193     -1.664291
H       1.294628     -1.443765      1.002707
H      -1.809164     -1.233153      0.005720
H      -0.279005     -1.712946     -0.742436
H      -0.494400     -1.228522      1.995696
H       1.077559      1.477723     -0.797949
H       2.988728      0.435296     -0.380150
