16
Extracted from Q-Chem output
C      -1.191393      1.363055     -0.173702
C      -0.223001      0.235109      0.081336
C      -0.774244     -1.161044     -0.027054
O      -0.618561     -1.957790      1.159165
N       0.973492      0.431375     -0.683661
C       2.104516     -0.044850     -0.266474
O       2.144376     -0.684133      0.858863
H      -0.802584      2.326727      0.165966
H      -2.115288      1.192320      0.380595
H      -1.478163      1.480612     -1.235766
H       1.211029     -0.552819      1.231435
H      -1.842525     -1.119587     -0.279831
H      -0.277850     -1.746453     -0.808528
H      -0.923396     -1.409068      1.886493
H       0.985252      1.013801     -1.515211
H       3.029478      0.104390     -0.807037
