12
Extracted from Q-Chem output
N       0.969614      1.015506      0.519252
C       0.215789      0.124783     -0.355184
C      -1.270407     -0.098622     -0.120270
C      -0.335059     -1.227571     -0.067540
O      -0.005487     -1.585368     -1.444907
C       0.650725     -0.445931     -1.675287
O       0.547930      0.969758      1.802958
H       1.960312      0.754821      0.439537
H       0.899941      1.965737      0.131236
H      -1.560607      0.279937      0.853627
H      -1.965943     -0.001937     -0.944496
H      -0.138919     -1.935713      0.721675
