12
Extracted from Q-Chem output
N       0.951737      0.970157      0.625498
C       0.039808      0.278491     -0.277313
C      -1.385671      0.040042     -0.588476
C      -0.530653     -1.008716      0.124924
O       0.393010     -1.769603     -0.597038
C       1.128281     -0.549090     -0.988851
O       1.994186     -0.061361      0.103437
H       1.322675      1.863371      0.314790
H       0.718041      0.984399      1.619335
H      -2.141386      0.451922      0.070499
H      -1.657487     -0.023830     -1.635709
H      -0.849413     -1.327598      1.114880
