13
Extracted from Q-Chem output
C       2.005327     -0.040673     -0.021194
C       0.280850     -0.288011      0.012158
C       0.870553     -1.360632     -0.431167
N      -2.497251     -0.508708     -0.372300
C      -1.967522      0.589313     -0.005974
C      -0.545711      0.736112      0.249445
H       1.999805      0.530276      0.911104
H       2.764675     -0.810818      0.103555
H       2.223646      0.572651     -0.886479
H       1.064387     -2.236637      0.176846
H      -3.496303     -0.395710     -0.514868
H      -2.551762      1.505281      0.140763
H      -0.159230      1.671982      0.625616
