15
Extracted from Q-Chem output
C      -1.771016     -0.485847     -0.293516
C      -0.562874      1.224109      0.040608
O      -0.450615      1.548441      1.225438
C       0.186614      0.101910     -0.480781
C       2.076152      0.113213     -0.056244
N       0.901962     -0.576257      0.544381
H      -2.418573     -0.157886      0.516789
H      -2.249474     -0.336568     -1.260528
H      -1.531130     -1.543889     -0.162412
H      -1.095606      1.836081     -0.696810
H       0.598211     -0.113787      1.417616
H       0.247924     -0.235476     -1.498036
H       2.600491      0.704963      0.683497
H       2.686134     -0.590653     -0.611415
H       0.849143     -1.589124      0.602062
