14
Extracted from Q-Chem output
C      -1.192049     -0.704934      0.194866
C      -2.436592     -0.701068      0.643813
O       0.584441      1.320340     -1.392940
C       1.373257      1.066613     -0.249412
C       1.128207     -0.298626      0.365116
O      -0.134229     -0.406993      0.986314
H      -0.946904     -0.960859     -0.832514
H       0.914276      0.792253     -2.122045
H      -3.243252     -0.969770     -0.021826
H      -2.667839     -0.429301      1.665291
H       1.111374      1.835616      0.478935
H       2.444003      1.165546     -0.472506
H       1.866133     -0.477269      1.150198
H       1.248681     -1.085896     -0.391769
