15
Extracted from Q-Chem output
C      -1.028425     -1.118418      1.007773
C      -0.294830     -0.010235      0.306248
C      -1.069952      1.252110      0.056027
C       0.980531     -0.120215     -0.080287
O       1.730709     -1.257344      0.014554
N       1.735524      0.889730     -0.670296
H      -1.589132     -0.723508      1.860096
H      -0.368666     -1.889379      1.414369
H      -1.755526     -1.612932      0.353852
H       1.147459     -2.003922      0.162405
H      -0.626762      1.851972     -0.740363
H      -2.093373      1.016643     -0.250350
H      -1.146800      1.879341      0.952132
H       1.628068      1.795706     -0.246911
H       2.703443      0.631871     -0.771809
