13
Extracted from Q-Chem output
O       1.150574      2.184070     -0.024277
C       0.791662      1.033532     -0.107180
C       1.820484      0.069639     -0.723775
O       1.663322     -1.104388     -0.898153
C      -1.307587     -0.506498     -0.377613
C      -0.751732     -0.790782      0.965330
C      -0.532748      0.576116      0.347386
H       0.095756     -1.457836      1.024228
H       2.753348      0.599373     -0.999087
H      -0.834603     -0.982014     -1.224411
H      -1.420435     -0.815545      1.814931
H      -2.369823     -0.330773     -0.479660
H      -1.111994      1.392524      0.758897
