13
Extracted from Q-Chem output
O      -0.270325      1.567801      0.993486
C      -0.783436      0.373183      1.012622
C      -1.394381     -0.929021     -0.993738
C      -0.245141     -0.426144     -0.134692
O       0.672252      0.260296     -1.009549
C       1.924571      0.399437     -0.579241
O       2.368471     -0.021406      0.448778
H      -0.619910      2.063263      1.742121
H      -2.100208     -1.482597     -0.376992
H      -1.013159     -1.581713     -1.778026
H      -1.917645     -0.092836     -1.459459
H       0.274490     -1.268149      0.336057
H       2.504311      0.957651     -1.326825
