13
Extracted from Q-Chem output
O      -0.708444      1.327749      0.637999
C      -0.720802     -0.030264      0.765386
C      -1.283984     -0.739522     -0.879523
C       0.093369     -0.663579     -0.337803
O       0.925606      0.204486     -1.080638
C       2.092657      0.517861     -0.507468
O       2.496251      0.097432      0.533629
H      -1.213974      1.681641      1.371371
H      -1.818572     -0.511776      0.377270
H      -1.741908     -1.714895     -0.994012
H      -1.555879      0.032956     -1.586988
H       0.599644     -1.587101     -0.079933
H       2.633591      1.216640     -1.159104
