11
Extracted from Q-Chem output
C      -1.613531     -0.150091      0.747330
C      -0.364089     -0.031279      0.284734
C       0.464011      1.168554      0.171904
N       1.582993      0.939204     -0.403233
N       1.702294     -0.406091     -0.612288
N       0.487613     -1.018453     -0.189814
H       1.920206     -0.586578     -1.586186
H      -2.134849     -1.097080      0.760151
H      -2.124391      0.719818      1.132246
H       0.185791      2.164416      0.483167
H       0.153469     -1.775051     -0.760620
