11
Extracted from Q-Chem output
C      -1.248635     -0.172197      0.104605
C      -0.004199     -0.056505      0.734115
C       0.737261      1.151131      0.489182
N       1.448474      0.915574     -0.572090
N       1.277750     -0.399886     -0.929538
N       0.865233     -1.027205      0.266867
H      -0.222340     -0.196048     -1.128847
H      -1.693996     -1.154085     -0.032194
H      -1.956700      0.648492      0.144882
H       0.606964      2.140975      0.897845
H       0.449703     -1.922875      0.052565
