13
Extracted from Q-Chem output
C      -1.235486     -1.120854     -0.388655
C      -0.310180     -0.046676      0.047975
O      -0.360756      0.453413      1.399217
C      -0.367526      1.369748      0.319343
O       0.948926      1.645955     -0.061034
C       1.144730      0.228886     -0.372729
O       2.156231     -0.361572      0.325990
H      -2.244943     -0.923436     -0.029572
H      -0.907525     -2.084521      0.005971
H      -1.254826     -1.185594     -1.477535
H       1.947111     -0.269879      1.263241
H      -1.116964      2.147150      0.287454
H       1.343283      0.110116     -1.438172
