11
Extracted from Q-Chem output
N      -1.520028     -0.097590      1.312805
C      -1.197205      0.081751      0.085217
O      -1.701827      0.182322     -1.040917
C       0.312346      0.168331     -0.148526
C       1.352471     -0.300986     -1.028515
O       1.070220      1.090621     -0.620137
H       0.089835     -0.193461      1.742555
H      -2.514881     -0.195724      1.466286
H       0.879230     -0.171241      1.504478
H       2.262749     -0.708754     -0.609407
H       1.097970     -0.508428     -2.059976
