11
Extracted from Q-Chem output
O       2.294986     -0.793357     -0.074597
C       1.157954     -0.394396     -0.008556
N       0.003934     -1.100870     -0.096905
C      -1.178875     -0.275687      0.064775
C      -0.710763      1.135266      0.326471
C       0.678692      1.032381      0.207906
H       0.006272     -2.099745     -0.202650
H      -1.777304     -0.580171      0.929842
H      -1.837075     -0.313017     -0.807685
H       0.025915      1.529101     -0.732495
H       1.386359      1.831148      0.405389
