17
Extracted from Q-Chem output
C       1.567523     -0.614270     -0.056592
C       0.784131      0.704115      0.066597
C       0.191101      0.746201     -1.342269
C      -0.258845     -0.682291     -1.528571
C      -1.726387      0.334690      0.946318
C      -0.287058     -0.118523      0.815838
C       0.128172     -1.235496     -0.215270
H       2.265284     -0.724215     -0.887756
H       2.023314     -0.955826      0.872809
H       1.221800      1.605493      0.492116
H       0.910113      0.995082     -2.130204
H      -0.655538      1.422379     -1.495247
H      -2.161246      0.647427     -0.003601
H      -1.798394      1.174361      1.641312
H      -2.345665     -0.474075      1.338961
H       0.096216     -0.419331      1.794836
H      -0.061181     -2.287578     -0.016095
