16
smiles: [C:1]([C:2](=[O:3])[H:11])([H:7])([H:8])[H:9].[C:4]([C:5]([H:10])([H:13])[H:14])(=[C:6]([H:15])[H:16])[H:12]
C        2.74258400       0.08806900       0.69344700
C        2.14321200       0.57468400      -0.59122200
O        1.44077700      -0.08305800      -1.30784700
C       -1.85868600      -0.12351300      -0.18543400
C       -1.08438100      -0.48144200       1.04286700
C       -3.17943600      -0.09067600      -0.27084500
H        2.41671400       0.73308200       1.51365700
H        3.83141700       0.17080100       0.63943100
H        2.45468300      -0.94303000       0.88905200
H       -0.42775200       0.33960100       1.34217600
H        2.39074300       1.62312900      -0.86246200
H       -1.27123900       0.12701700      -1.06600000
H       -0.44392200      -1.34849100       0.86138600
H       -1.74731900      -0.71301200       1.87763700
H       -3.68104100       0.17907500      -1.19223500
H       -3.80914600      -0.33202900       0.57962100
