13
Extracted from Q-Chem output
N      -1.789711     -1.061679     -0.643257
C      -0.548474     -0.629847     -1.006105
O      -0.251005     -0.321832     -2.137463
C       0.092220      1.130783      0.328940
C       1.419228      0.560527      0.405324
O       1.438590     -0.711752      0.716873
H      -1.906080     -1.514956      0.245485
H      -2.443537     -1.292634     -1.374771
H      -0.615699      0.843857      1.098535
H      -0.091771      2.069541     -0.187698
H       2.116954      0.926363     -0.362412
H       1.558423      1.259243      1.316846
H       0.327152     -0.870699     -0.143697
