14
Extracted from Q-Chem output
C       1.830458      0.093601      0.084736
C       0.790312      0.228974     -0.888885
O       0.531153      1.520672     -1.022611
C      -0.441097     -0.687414     -0.803945
C      -1.385887     -0.217275      0.301404
O      -1.905998      1.056511      0.057446
H       1.838943     -0.603611      0.922151
H       1.409002     -0.254802     -1.745262
H       2.632708      0.818301      0.008578
H      -0.963154     -0.648821     -1.761393
H      -0.114036     -1.718139     -0.630545
H      -0.856966     -0.253234      1.269267
H      -2.228291     -0.911132      0.368661
H      -1.160328      1.590530     -0.272317
