17
smiles: [C:1]([O:2]/[C:3](=[C:6](\[C:7]([H:15])([H:16])[H:17])[H:14])[H:11])([H:8])([H:9])[H:10].[C:4](=[O:5])([H:12])[H:13]
C        2.20298500       0.68598000      -0.55677000
O        0.82767400       0.85706300      -0.29773500
C        0.00351000       0.04694900      -1.01069400
C        0.20872400      -1.65281600       1.58506400
O        1.26669200      -2.14611600       1.32564000
C       -1.31374600       0.04847300      -0.85966900
C       -2.07374300       0.91447800       0.09386700
H        2.53196800      -0.32725900      -0.30301900
H        2.43738600       0.88844800      -1.60728800
H        2.73652700       1.39878000       0.06884800
H        0.49504000      -0.60929300      -1.72507400
H       -0.72326600      -2.24909500       1.61789100
H        0.10379100      -0.57292700       1.80572300
H       -1.87129300      -0.63578700      -1.48839700
H       -2.75563400       1.58072000      -0.44126300
H       -2.68246800       0.31007500       0.77113600
H       -1.40193700       1.52707100       0.69347400
