17
Extracted from Q-Chem output
C       2.127606      0.924584     -0.182507
O       0.727762      0.989444     -0.352759
C       0.157575     -0.225084     -0.694623
C       0.134738     -1.372887      0.677580
O      -0.929599     -2.118450      0.585941
C      -1.244480     -0.299367     -0.599473
C      -2.024670      0.691614      0.152157
H       2.404608      0.292426      0.666061
H       2.613897      0.539764     -1.086704
H       2.471588      1.940460      0.001865
H       0.630038     -0.726890     -1.541247
H       0.154682     -0.549732      1.424550
H       1.117203     -1.891791      0.700084
H      -1.758232     -1.054419     -1.171984
H      -3.040630      0.357385      0.341736
H      -1.514260      0.932028      1.087382
H      -2.035936      1.623278     -0.425829
