17
Extracted from Q-Chem output
C      -1.344473     -0.195774      0.301966
C      -0.657934     -1.438774     -0.263720
O       0.645898     -1.195483     -0.729994
C       1.554455     -0.663948      0.226099
C       1.540464      0.791614      0.538537
C       0.458085      1.553087      0.094616
C      -0.898398      1.076892     -0.415034
H      -1.132057     -0.092331      1.370019
H      -2.426374     -0.323928      0.214773
H      -0.653824     -2.243686      0.484950
H      -1.205792     -1.802088     -1.135771
H       1.449353     -1.164746      1.203611
H       2.545613     -0.938502     -0.139894
H       1.469717      1.546332     -0.617999
H       0.490329      2.611685      0.358781
H      -0.866164      0.914987     -1.494947
H      -1.620023      1.877473     -0.240382
