12
Extracted from Q-Chem output
O       0.037467     -1.113258      1.627055
C      -1.007464     -0.796766      1.040855
C      -1.062254      0.199895      0.071753
C       1.001047      0.635758      0.473904
C       0.212708      0.477740     -0.719093
C       0.630513     -0.543667     -1.678200
N       0.956397     -1.339529     -2.436071
H      -1.934137     -1.350582      1.255574
H      -1.964250      0.728041     -0.205320
H       1.790572     -0.041051      0.755442
H       0.875867      1.550761      1.034321
H       0.049991      1.430316     -1.226317
