14
Extracted from Q-Chem output
C      -1.792838     -0.052755     -0.444526
C      -0.504070     -0.015974      0.383322
C       0.524026     -0.975849     -0.149545
C       1.815025     -0.877103      0.041293
N       3.003986     -0.883284      0.297788
O       1.073282      1.811930      0.204182
C      -0.023751      1.415977      0.478096
H      -2.533384      0.649908     -0.057757
H      -1.588230      0.200541     -1.486554
H      -2.233492     -1.049734     -0.417022
H       0.188129     -1.813681     -0.748518
H       3.588922     -0.340513     -0.331299
H      -0.773321     -0.278485      1.417663
H      -0.800908      2.122017      0.842135
