13
Extracted from Q-Chem output
C      -2.383198      0.078429      0.024829
O      -1.109745     -0.563970      0.119564
C      -0.065875      0.162402     -0.281553
O      -0.146193      1.290919     -0.686594
C       1.224664     -0.610403     -0.179126
C       2.372599      0.254509      0.294773
O       3.260881     -0.164334      0.980852
H      -2.597494      0.346096     -1.009660
H      -3.106020     -0.646630      0.388378
H      -2.401707      0.979434      0.637156
H       1.474731     -0.935635     -1.195641
H       1.131716     -1.495954      0.445446
H       2.345641      1.305138     -0.048693
