12
Extracted from Q-Chem output
N      -1.291427     -0.822473     -0.025145
C      -0.164531     -0.212102     -0.716422
C      -1.466207      0.485882     -0.643402
C       0.912702      0.298962      1.637869
N       1.681679     -0.490497      0.989554
C       0.974080      0.336932      0.075321
H      -1.181134     -0.720051      0.979992
H       0.099153     -0.707666     -1.647246
H      -2.118935      0.506469     -1.507853
H      -1.521483      1.354864      0.003361
H       2.314083     -1.266619      1.107050
H       1.548215      1.131054     -0.394039
