17
smiles: [C:1]([C@:2]12[C:3]([H:11])=[C:4]([H:13])[C:5]([H:14])([H:15])[C@@:6]1([H:16])[O:7]2)([H:8])([H:9])[H:10].[H:12][H:17]
C        2.33977400       0.07064300      -0.13408000
C        0.84694000       0.05805500      -0.03527200
C        0.08694200      -1.19069400       0.28588900
C       -1.14519100      -1.12781600      -0.20454000
C       -1.38914300       0.15194800      -0.96739200
C       -0.08302600       0.89943900      -0.79491000
O        0.23397100       1.21690300       0.55274500
H        2.69329500       1.04906600      -0.45809300
H        2.68126400      -0.68251500      -0.84675100
H        2.78754700      -0.15139300       0.83704100
H        0.49909700      -2.00633100       0.86616600
H       -2.30284500       0.61960400       2.76349000
H       -1.91393000      -1.87610000      -0.05657900
H       -1.59845200      -0.04005100      -2.02385500
H       -2.23426500       0.71642900      -0.56415400
H        0.24463800       1.62561900      -1.53202500
H       -1.74366000       0.73188400       2.28490000
