17
Extracted from Q-Chem output
C       2.247528      0.050626     -0.013077
C       0.795990     -0.176280     -0.109410
C       0.067506     -1.239673      0.383136
C      -1.279097     -0.981726      0.170520
C      -1.447975      0.103793     -0.834007
C      -0.125880      0.903729     -0.616596
O      -0.144805      1.688724      0.499645
H       2.396725      1.033671      0.440987
H       2.679196      0.095241     -1.018345
H       2.764030     -0.711423      0.568568
H       0.459637     -2.032547      1.004702
H      -1.604865      0.233192      1.631145
H      -2.094576     -1.581200      0.555176
H      -1.462163     -0.342679     -1.832383
H      -2.345283      0.703887     -0.698070
H       0.190436      1.432811     -1.525278
H      -1.102362      0.853634      1.381143
