11
Extracted from Q-Chem output
O       1.049437     -0.207259      2.116418
C       0.540488     -0.159232      1.032541
C       1.002359     -0.625367     -0.351230
C       0.229384      0.587117     -0.954365
N      -1.188158      0.141097     -0.575298
C      -0.409046      0.830371      0.453206
H       2.085942     -0.544480     -0.428269
H       0.694458     -1.606820     -0.717004
H      -1.912183      0.692312     -1.009187
H      -1.447654     -0.825979     -0.408583
H      -0.828792      1.716256      0.910789
