8
Extracted from Q-Chem output
N       1.808414     -0.332334     -0.765917
C       1.731340     -0.451461      0.410121
C       0.193360     -0.193726      0.260906
C      -0.450039      1.111165      0.248604
O      -1.646134      1.257288      0.246877
N      -1.297095     -2.106363      0.181831
N      -0.588451     -1.247398      0.208099
H       0.260633      1.955168      0.246509
