12
Extracted from Q-Chem output
C      -1.891652      0.923468     -0.128792
C      -0.762764     -0.254652      0.736432
O      -0.528545      0.980443      1.022972
N       0.296626     -0.944859      0.213805
C       1.575468     -0.461321     -0.026674
N       2.465661     -1.231739     -0.485608
H      -1.621151      1.938281     -0.421170
H      -1.936734      0.291267     -1.015002
H      -2.781241      0.862660      0.479067
H       0.159598     -1.923972      0.017222
H       1.694842      0.593382      0.216235
H       3.341344     -0.734203     -0.605990
