13
Extracted from Q-Chem output
C       1.877523      0.489878      0.246279
C       0.419410      0.312071      0.019372
C      -0.288425     -0.997160      0.277795
N      -1.612805     -0.631651     -0.111673
C      -1.677975      0.682890     -0.500472
O      -2.654522      1.280494     -0.855318
N      -0.349413      1.230258     -0.408172
H       2.164671      1.515137      0.025105
H       2.446871     -0.190142     -0.391653
H       2.134275      0.254538      1.281630
H       0.140004     -1.802901     -0.328191
H      -2.429484     -1.208805     -0.048118
H      -0.204529     -1.283950      1.332108
