14
Extracted from Q-Chem output
C      -1.524043      0.379157     -0.092805
C       0.003120      0.340000     -1.188434
C       1.182650      0.746076     -0.296956
C       1.282219     -0.286337      0.798329
C       0.304887     -1.175532      0.686792
C      -0.610153     -0.799827     -0.442813
H      -1.486524      0.672262      0.950869
H      -2.515581      0.311621     -0.528049
H      -1.084534      1.245322     -0.758262
H       1.115340      1.774856      0.068105
H       2.064681      0.731040     -0.946675
H       2.046741     -0.284780      1.565498
H       0.146508     -2.034117      1.327160
H      -1.100828     -1.596707     -0.992202
