16
smiles: [C:1]([N+:2]#[C-:3])([H:8])([H:9])[H:10].[O:4]([C:5]([C:6]([O:7][H:16])([H:14])[H:15])([H:12])[H:13])[H:11]
C        2.10286300      -0.53021300      -1.61305200
N        2.09004800       0.20491900      -0.40139200
C        2.08021700       0.80670200       0.59312500
O       -0.60957400       0.43112400       1.82760500
C       -1.28033600       0.89031000       0.66351800
C       -1.89467700      -0.32250700       0.00392600
O       -0.91360400      -1.25416300      -0.38806000
H        2.86632800      -1.30539600      -1.56239500
H        1.12965400      -0.99340200      -1.77035600
H        2.32250600       0.13830200      -2.44437700
H       -0.03015800       1.11937200       2.15410300
H       -2.06482300       1.61368500       0.91888300
H       -0.57572100       1.36360000      -0.03005200
H       -2.61761100      -0.77784000       0.69376200
H       -2.43073400      -0.01923400      -0.89735100
H       -0.36269300      -1.41619800       0.38277800
