16
Extracted from Q-Chem output
C       2.001564      0.180025     -1.035948
C       0.939799     -0.523902     -0.183950
C      -0.394196      0.054092     -0.563710
C      -1.720058     -1.209083      0.792642
C      -0.731225      1.295889     -0.007234
C      -1.011357      2.402712      0.389704
H       1.800253      0.043285     -2.099015
H       2.024515      1.250991     -0.828840
H       2.987610     -0.229689     -0.812697
H       0.954130     -1.592281     -0.409990
H       1.194018     -0.395921      0.875946
H      -1.386719     -0.831185     -0.306974
H      -1.064377     -0.946019      1.613293
H      -2.704376     -0.761602      0.908947
H      -1.762846     -2.287600      0.643768
H      -1.276695      3.385813      0.698690
