12
Extracted from Q-Chem output
C      -0.910736      0.439433      0.196262
C       0.206055      1.366334     -0.109868
C       1.365767      0.700513     -0.327962
C       1.217407     -0.703655     -0.067842
O      -0.738305     -1.967009      0.682915
C      -0.245160     -0.919849     -0.108820
H      -1.153797      0.446457      1.262100
H      -1.829578      0.673758     -0.346557
H       0.088951      2.446369     -0.133501
H       2.312413      1.181696     -0.541312
H       0.016917     -2.528742      0.880596
H      -0.411848     -1.136483     -1.184635
