13
Extracted from Q-Chem output
C       2.031489     -0.222670      0.662882
C       0.569134     -0.305400      0.747165
C      -0.074960      0.650928     -0.145399
N      -1.473157      0.450490     -0.426856
C      -2.080560     -0.762654     -0.489003
O      -3.232174     -0.924029     -0.815901
H       2.243397     -1.095088      0.019959
H       2.473877      0.658367      0.175476
H       2.525779     -0.447926      1.607868
H       0.040873      1.526468      0.530031
H       0.499480      0.908040     -1.051161
H      -2.026304      1.231862     -0.739393
H      -1.410451     -1.587643     -0.197416
