15
Extracted from Q-Chem output
O       2.280598      0.495175     -0.739967
C       0.898894      0.448754     -0.420500
C       0.585085     -0.849127      0.301359
C      -0.811628     -1.195153      0.731604
C      -1.957333     -0.548819      0.568670
C       0.192836      1.737628     -0.243420
C       0.023965      1.138461     -1.378685
H       2.787950      0.336574      0.059475
H       1.213247     -0.891972      1.202307
H       0.952283     -1.666005     -0.330521
H      -0.853059     -2.145568      1.260612
H      -2.039484      0.400016      0.059364
H      -2.874112     -0.975337      0.958011
H       0.000678      2.588368      0.387905
H      -0.404528      1.131026     -2.366335
