14
Extracted from Q-Chem output
C       1.129509     -1.600224     -0.418858
C       1.437795     -0.805360      0.518024
C       1.224639      0.378918      1.115885
C      -0.383124      1.046995     -0.134479
C      -1.596166      0.198878      0.047343
C      -0.723161      0.249017     -1.164195
H       1.439351     -2.571039     -0.763243
H       0.682001      0.412674      2.054546
H       1.937912      1.180357      0.954379
H      -0.154710      2.090503     -0.000742
H      -2.581339      0.661707      0.042687
H      -1.521367     -0.675570      0.693471
H       0.250764     -1.003268     -1.009214
H      -0.848554      0.354237     -2.228958
