10
Extracted from Q-Chem output
C       0.691001      0.661800      0.118710
C       1.515016     -0.484553     -0.236544
N       0.969904     -1.632501     -0.485416
N       0.451542     -2.610208     -0.693383
C      -1.906449      0.690672      0.340232
C      -0.611892      0.680616      0.231289
H       1.239163      1.579485      0.304653
H       2.589271     -0.445051     -0.308710
H      -2.395061      0.471220      1.284296
H      -2.543226      0.921986     -0.507791
