10
Extracted from Q-Chem output
C       0.794297      0.904436     -0.061150
C       1.311256     -0.365623     -0.063105
N       0.506698     -1.440310     -0.348855
N      -0.747284     -1.389533     -0.302899
C      -1.277815     -0.203123      0.281320
C      -0.524095      0.971785      0.430908
H       1.395539      1.786294     -0.247069
H       2.362743     -0.611917      0.022153
H      -2.204899     -0.361050      0.826908
H      -1.620788      0.635589     -0.524882
