15
Extracted from Q-Chem output
C       1.130672     -0.268651      0.866893
C       0.505437      0.498419     -1.353445
N      -0.003395     -0.005667     -0.031085
C      -0.832100     -1.212111     -0.206660
C      -0.787243      1.156513      0.394881
O      -1.981810      1.203968      0.343718
H       1.795564     -0.957941      0.348092
H       0.772827     -0.682852      1.809672
H       1.663137      0.664367      1.044047
H      -0.355267      0.805013     -1.946584
H       1.194428      1.322025     -1.162046
H      -0.194044     -1.978958     -0.637914
H      -1.643684     -0.979591     -0.888417
H      -1.240761     -1.520395      0.755856
H      -0.120594      1.965967      0.718402
