9
Extracted from Q-Chem output
O       1.812622     -0.021174      0.495504
C       0.646718      0.193148     -0.212456
C      -0.139521      1.398676      0.286106
O      -1.357338      0.933141      0.385148
C      -1.376693     -0.468789      0.093568
N      -0.274973     -0.955440     -0.215642
H       2.267807     -0.773657      0.110531
H       0.830136      0.434476     -1.277222
H      -2.346661     -0.939015      0.178860
