16
Extracted from Q-Chem output
C       0.082731      1.599381     -0.165859
C      -0.608305      0.240105     -0.162869
C       0.308947     -0.908238     -0.644072
C       1.501743     -1.103667      0.172956
C       2.462499     -1.254234      0.872808
C      -1.355629     -0.103895      1.174643
N      -1.934683      0.153093     -0.448695
H       1.002508      1.590535      0.421240
H      -0.594717      2.361712      0.217095
H       0.342544      1.862599     -1.193473
H       0.605409     -0.688430     -1.673473
H      -0.282193     -1.825356     -0.672723
H       3.321414     -1.393424      1.485599
H      -1.037865     -1.080972      1.525147
H      -1.257481      0.723785      1.868420
H      -2.458450     -0.200132      0.939593
