18
Extracted from Q-Chem output
C      -2.051910      0.235194      0.691236
C      -1.216661      0.232212     -0.580092
C      -0.007138      1.142386     -0.663591
C       0.924828      0.047511     -0.809446
C       2.063934     -0.257252      0.879861
C      -0.218113     -0.951796     -0.763024
H      -1.420738      0.106798      1.574937
H      -2.797246     -0.565588      0.683810
H      -2.581142      1.184492      0.799222
H      -1.887756      0.310151     -1.443563
H       0.953443      0.599846      0.335233
H       0.125312      2.192133     -0.878425
H       1.817735     -0.027805     -1.423164
H       2.333724     -1.289686      0.668975
H       2.934022      0.397795      0.848580
H       1.554036     -0.194846      1.847940
H      -0.320908     -1.465634     -1.719091
H      -0.183036     -1.693598      0.036010
