20
Extracted from Q-Chem output
C      -1.746340      1.022209     -0.022013
C      -0.706514      0.292983      0.767682
C      -1.063726     -1.729313     -0.210442
C       0.724823      0.572163      0.400462
C       1.693174     -0.423275      1.032636
C       1.095774      0.850475     -1.060361
H      -1.658627      2.068170      0.295384
H      -1.640204      1.017027     -1.115112
H      -2.755359      0.700499      0.237242
H      -0.969265     -1.019523      0.782268
H      -0.616439     -1.370110     -1.129708
H      -2.135982     -1.869041     -0.328449
H      -0.576421     -2.641120      0.131390
H       0.842984      1.523435      0.947839
H       1.662018     -1.380166      0.504394
H       1.432777     -0.603496      2.076067
H       2.721932     -0.060106      0.985190
H       0.460400      1.612798     -1.512599
H       2.128167      1.199850     -1.131046
H       1.022088     -0.055014     -1.668299
