16
Extracted from Q-Chem output
C       2.052446     -0.306467     -0.187259
C       0.723408     -0.806739      0.360146
C      -0.491653     -0.307947     -0.388238
C      -1.764293     -0.516893      0.110148
C      -0.373885      1.753294     -0.169775
O      -0.169236      2.550757     -0.960263
H       2.139183      0.778817     -0.108613
H       2.889360     -0.746665      0.356798
H       2.166932     -0.573032     -1.240809
H       0.715407     -1.901634      0.328372
H       0.622515     -0.537187      1.416169
H      -0.377375     -0.209250     -1.465071
H      -2.052997      0.838101      0.777500
H      -2.617303     -0.526317     -0.558667
H      -1.893006     -1.067750      1.036870
H      -1.620775      1.610725      0.838638
