11
Extracted from Q-Chem output
C      -1.587445     -0.220989     -0.181608
N      -0.342700     -0.757246      0.233678
C       0.673954      0.089438      0.186869
N       0.318722      1.325444     -0.142853
C       2.014584     -0.360454      0.380120
N       3.094682     -0.718712      0.537566
H      -2.036405      0.410036      0.587736
H      -2.260427     -0.998301     -0.527760
H      -0.714555      1.063871     -0.641416
H      -0.161608     -1.742707      0.334181
H       1.048874      1.917434     -0.513540
