19
Extracted from Q-Chem output
C       2.800550      0.945421     -0.040706
C       1.743950     -0.135484     -0.161283
O       0.635140      0.139856      0.672188
C      -0.946358     -1.047213      0.289707
C      -2.172469     -0.833584      1.055369
C      -2.103833     -0.585709     -0.436752
C      -1.495799      0.763681     -0.663036
H       3.128578      1.044165      0.994741
H       2.400503      1.906983     -0.366427
H       3.667014      0.706197     -0.661395
H       2.155586     -1.103300      0.143063
H       1.410924     -0.228419     -1.205473
H      -0.268264     -1.883090      0.240610
H      -2.282861      0.005373      1.730804
H      -2.633061     -1.756540      1.398483
H      -2.698946     -1.162181     -1.139560
H      -1.114330      0.879272     -1.674994
H      -2.076364      1.610417     -0.298842
H      -0.119371      0.705036      0.145807
