15
Extracted from Q-Chem output
N       2.424075      1.353431     -0.340843
C       1.198451      0.799893     -0.078659
O       0.617189      1.282583      0.973225
N       0.634646     -0.104074     -0.815209
C      -1.280409     -1.202568     -0.220221
C      -1.927227     -0.818285      1.022066
O      -1.646062      0.506749      0.702083
H       2.818684      1.904658      0.400215
H       3.067780      0.846899     -0.918830
H       1.172242     -0.380371     -1.625944
H      -0.473211     -1.912937     -0.270808
H      -1.796254     -0.969368     -1.138755
H      -1.428065     -1.190752      1.924579
H      -3.000553     -1.036629      1.086059
H      -0.422693      0.931918      0.945157
