12
Extracted from Q-Chem output
O       2.227962      1.039673     -0.006892
C       1.972859     -0.008764      0.721365
C       0.868440     -0.781162      0.072552
O       1.165728     -1.677851     -0.681299
N      -0.408058     -0.515873      0.529695
C      -1.554955     -0.655042     -0.326963
C      -1.135209      0.685729      0.167728
H       2.982369      1.505709      0.373578
H      -2.412435     -1.143572      0.118671
H      -1.361250     -0.898322     -1.365447
H      -0.671326      1.357020     -0.546534
H      -1.679046      1.163270      0.973630
