11
Extracted from Q-Chem output
O      -1.692983     -0.398352     -0.368373
C      -0.862297      0.695817     -0.082543
C       0.547349      0.316597      0.319106
C       0.935025     -0.902400      1.053582
O       1.122618     -0.553472     -0.713834
H      -1.312009     -0.886248     -1.102299
H      -0.811982      1.391661     -0.931527
H      -1.317081      1.229725      0.754876
H       1.156433      1.209684      0.474853
H       0.074742     -1.583363      0.966278
H       2.079203     -0.456804     -0.710456
