13
Extracted from Q-Chem output
N      -1.963646     -0.287551     -0.085729
C      -0.593365     -0.130158     -0.045398
C       0.026189      1.164747      0.178462
C       1.313044      0.970316      0.542638
C       1.447966     -0.465784      0.422026
O       1.843533     -0.915373     -0.720311
N       0.222658     -1.042201      0.745006
H      -2.307691     -1.062638     -0.625798
H      -2.505129      0.550097     -0.208383
H      -0.460016      2.102599     -0.054301
H       2.126099      1.677202      0.522207
H       0.618614     -0.574775     -1.190572
H       0.197826     -1.991070      0.393863
