15
Extracted from Q-Chem output
C      -1.684612      0.154324      0.640932
N      -0.281943      0.257909      0.945951
C       0.371006      0.233781     -0.385692
C       1.785346     -0.294773     -0.296264
O       2.614146      0.533109      0.492073
C      -0.549986     -0.504903     -1.337949
N      -1.677880     -0.517036     -0.687694
H      -2.235505     -0.422450      1.384033
H      -2.146792      1.140979      0.537905
H      -2.524869     -0.887460     -1.090264
H      -0.005228     -0.588909      1.432974
H       0.418933      1.261871     -0.776323
H       2.219203     -0.336201     -1.294808
H       1.767745     -1.322350      0.098996
H       2.107938      0.822757      1.255233
