16
Extracted from Q-Chem output
C      -1.746807     -0.504513      0.310430
C      -1.042675      0.677700      0.917189
N       0.097553      0.558975      1.774535
C       0.300031      1.248665      0.468982
C       0.865776      0.724192     -0.730258
C       1.461704     -0.594990     -0.706831
O       1.703050     -1.177962     -1.958585
H      -2.356954     -0.191714     -0.537360
H      -2.412164     -0.938980      1.059401
H      -1.068530     -1.285214     -0.029149
H      -1.723732      1.467408      1.220493
H       0.465986     -0.385811      1.739854
H       0.347379      2.325886      0.584475
H       1.643411     -0.458332     -2.595549
H       2.415503     -0.303842     -0.200727
H       1.026771     -1.371626     -0.062201
