12
Extracted from Q-Chem output
C       1.366425     -0.195560     -0.285801
C       0.325755     -1.033374     -0.315221
C      -1.090273     -0.625342      0.089938
C      -1.229901      0.874692     -0.062739
C      -0.119261      1.501895      0.261324
C       1.130362      1.105467      0.392392
H       2.359538     -0.513844     -0.579606
H       0.470263     -2.067389     -0.610618
H      -1.305940     -1.030388      1.086547
H      -2.030419      1.299315     -0.656077
H      -1.809715     -1.098049     -0.583094
H       1.832696      1.467470      1.133784
