12
Extracted from Q-Chem output
C       1.340327     -0.279736     -0.073622
C       0.319975     -1.204606     -0.011892
C      -0.995602     -0.730641      0.098547
C      -1.219874      0.719069      0.182655
C      -0.179693      1.671465      0.223245
C       1.088008      1.090337      0.080980
H       2.360966     -0.630718     -0.192839
H       0.512162     -2.268868     -0.049110
H      -1.835523     -1.410775      0.193767
H      -2.266538      1.016237      0.202073
H      -1.188008     -0.021990     -0.919602
H       1.963328      1.735120      0.136628
