17
Extracted from Q-Chem output
C      -1.150430      1.258592      0.194874
C      -0.928756     -0.220079      0.104860
C      -1.339804     -0.860990     -1.078157
C       0.279019     -0.820352     -0.502591
C       1.494702     -0.051743     -0.751528
C       1.811815     -0.004525      0.729220
C       1.192455     -0.134753      1.856612
H      -2.147499      1.443292      0.598599
H      -0.426131      1.740293      0.849073
H      -1.111178      1.746987     -0.789704
H       0.088114     -0.440215      1.841693
H      -1.446719     -1.935788     -1.158395
H      -1.796364     -0.298952     -1.893271
H       0.447707     -1.862370     -0.256369
H       1.340339      0.959267     -1.125854
H       2.271471     -0.543873     -1.332632
H       1.617948      0.083876      2.829249
