13
Extracted from Q-Chem output
N       2.206605      0.189762      1.731255
C       1.713477      0.246202      0.697124
C       1.116032      0.296348     -0.619306
C       0.109534     -0.725973     -1.052029
C      -0.765537     -0.988324      0.188122
C      -1.042622      0.502438      0.381949
N      -0.161431      1.008830     -0.732575
H       1.825160      0.618071     -1.375066
H      -0.505426      0.294576     -1.658815
H      -1.649826     -1.574779     -0.048696
H      -0.229201     -1.478925      1.002137
H      -2.067008      0.785013      0.151122
H      -0.758292      0.954591      1.332198
