11
Extracted from Q-Chem output
O      -1.594724     -0.598518     -0.232534
C      -0.966965      0.647843     -0.055674
C       0.468134      0.503067      0.398595
C       1.693024     -1.345877     -0.540193
O       1.214949     -0.154514     -0.653650
H      -1.256993     -1.006329     -1.033107
H      -1.004366      1.251929     -0.969210
H      -1.523538      1.178037      0.719590
H       0.933342      1.477324      0.555198
H       0.538692     -0.108719      1.302303
H       1.469240     -1.690114      0.506266
