12
Extracted from Q-Chem output
C      -0.539986     -2.114283     -0.172084
O       0.419754     -0.739531     -1.494047
C       0.298934      0.207028     -0.670428
N      -0.299305     -0.104407      0.459664
O      -0.362932      1.016032      1.275339
C       0.218310      2.002977      0.583358
C       0.655613      1.598845     -0.626270
H       0.419942     -2.600992     -0.246998
H      -1.024866     -2.169337      0.787659
H      -1.183992     -2.201711     -1.033116
H       0.250483      2.958314      1.085697
H       1.155859      2.177743     -1.381882
