21
Extracted from Q-Chem output
C       2.203218     -0.318343      0.048140
C       0.838253     -0.301446     -0.632710
C      -0.227642     -0.952219      0.248635
C      -1.516432     -1.253033     -0.374926
C      -2.600174     -1.386350      0.606028
C       0.409666      1.105011     -1.070092
C       0.265560      2.130502      0.050246
H       2.179464      0.194100      1.013346
H       2.537975     -1.342191      0.231011
H       2.957854      0.174143     -0.569166
H       0.895137     -0.905041     -1.543679
H       0.060043     -2.007741      0.448237
H      -0.282585     -0.492390      1.250808
H      -0.542022      1.011762     -1.603084
H      -2.320390     -1.543589      1.658503
H      -3.037010     -0.373395      0.534503
H      -3.397223     -2.062932      0.297013
H       1.134756      1.475105     -1.801692
H       1.208448      2.297568      0.574908
H      -0.475565      1.824787      0.792837
H      -0.059199      3.091985     -0.351047
