16
Extracted from Q-Chem output
C      -0.349205     -2.185982      0.250546
C      -1.056109      0.590714     -0.642462
C      -0.597048      2.032091     -0.616407
C       0.726634      1.493434      0.011282
C       0.086612      0.140165     -0.111462
N       0.616858     -1.112944      0.150130
O       1.414031     -1.075228      1.317986
H      -0.914287     -2.220600     -0.681097
H      -1.041914     -2.039519      1.087354
H       0.176259     -3.131774      0.373670
H      -1.961124      0.117751     -0.998903
H      -0.464022      2.506598     -1.591431
H      -1.169314      2.702912      0.027798
H       0.927166      1.820825      1.031650
H       1.619327      1.642080     -0.599660
H       2.287970     -1.325077      1.008245
