16
Extracted from Q-Chem output
C      -1.015751     -2.090529      0.093115
C      -0.617450      0.245505     -0.781536
C      -0.636418      1.769592     -0.682935
C       0.752098      1.655029      0.040185
C       0.471501      0.165947      0.048768
N       0.787111     -0.856210      0.806817
O       2.149923     -0.870801      1.084010
H      -1.399968     -1.928599      1.089159
H      -0.279621     -2.874051     -0.003606
H      -1.749748     -2.059150     -0.700280
H      -0.866411     -0.364082     -1.633442
H      -0.635299      2.308278     -1.632170
H      -1.412280      2.184676     -0.037651
H       0.861656      2.129372      1.016445
H       1.574805      1.949176     -0.609913
H       2.209197     -1.383441      1.894206
