11
Extracted from Q-Chem output
O      -1.737589      2.087870      0.036574
C      -1.667886      1.200255      0.839745
N      -0.777422      0.147252      0.751247
C       0.087654     -0.024343     -0.292420
C       1.161623     -0.901345     -0.216160
C       1.732997     -2.028705      0.048343
H      -2.311136      1.129799      1.731310
H      -0.758238     -0.544555      1.485277
H      -0.061416      0.637317     -1.135954
H       1.667232      0.184756     -0.260642
H       2.765162     -2.059624      0.387964
