8
Extracted from Q-Chem output
N       2.379461      0.459961     -0.007978
C       1.158219      0.326964      0.039191
C      -0.095143      0.089117      0.218156
C      -1.344551     -0.596516      0.085607
O      -1.217589      0.682330      0.745629
H       2.702596      0.949082     -0.842116
H      -1.876488     -0.568071     -0.860202
H      -1.569519     -1.427452      0.746820
