12
Extracted from Q-Chem output
C      -1.937834      0.022761      0.122161
C      -0.612132      0.705212      0.143604
C       0.480682      0.134288     -0.293205
O      -0.647637      1.963016      0.693362
N       1.484634     -0.350492     -0.808265
C       2.365178     -1.232483     -0.156373
O       2.098109     -2.362283      0.123233
H      -1.856036     -0.973534     -0.308739
H      -2.328752     -0.063528      1.137915
H      -2.643781      0.610578     -0.467986
H       0.198172      2.402188      0.581150
H       3.365426     -0.789965     -0.017635
