13
Extracted from Q-Chem output
C       1.480857      0.597052     -0.072326
C       0.766795     -0.264971      0.733683
C      -1.319062     -0.755496     -0.077314
O      -2.219708     -0.332885      0.862955
C      -1.061210     -0.068643     -1.222774
N      -0.385065      0.609693     -1.939439
H       0.585464      0.774506     -1.246101
H       1.531634      1.649204      0.189680
H       2.322897      0.216054     -0.640791
H       0.235588      0.098954      1.604563
H       1.015300     -1.318834      0.755288
H      -1.249246     -1.835468     -0.105379
H      -2.274801      0.625947      0.848551
