16
smiles: [C-:6]#[O+:7].[C:1]([C@@:2]1([H:11])[N:3]([H:12])[C:4]1=[C:5]([H:14])[H:15])([H:8])([H:9])[H:10].[H:13][H:16]
C       -2.18140500       0.20204100       1.15046100
C       -0.88186500      -0.14863600       0.48255900
N       -0.46489700       0.71427900      -0.65835400
C        0.28682400       0.70584800       0.51418100
C        1.36446100       1.19984100       1.08338800
C        2.03988100      -1.64833700      -0.90760800
O        3.00660800      -2.03723600      -0.48780200
H       -2.30059700       1.28453900       1.19494000
H       -3.02633100      -0.21863400       0.60174000
H       -2.20538700      -0.19200500       2.16843300
H       -0.68030100      -1.21302500       0.37816600
H       -0.04137900       0.21871200      -1.43324700
H       -0.14383800      -0.76908100      -3.89147400
H        1.60545600       0.95077100       2.10777700
H        2.02373300       1.86800500       0.54401200
H        0.29294900      -1.20848300      -3.47853400
