16
Extracted from Q-Chem output
C      -1.982478      0.353205      1.219829
C      -1.306719      0.045384     -0.085693
N      -0.697972      1.194686     -0.807127
C       0.134441      0.175663     -0.262620
C       1.336697      0.181177      0.394433
C       2.549765     -0.986758     -0.785915
O       3.601884     -1.351310     -0.545241
H      -1.428819      1.123599      1.756579
H      -3.000489      0.710813      1.052291
H      -2.034474     -0.540188      1.845777
H      -1.812153     -0.691035     -0.705619
H      -0.823522      1.113775     -1.809461
H       0.419850     -0.824113     -1.421797
H       1.462574     -0.444141      1.270530
H       1.967041      1.060213      0.338720
H       1.147058     -1.179388     -1.710092
