9
smiles: [N:1]([C:2]#[N:3])([H:7])[H:8].[O-:4][N+:5]#[C:6][H:9]
N       -1.44913700      -1.09502100       0.29213800
C       -0.70825700      -1.07186500      -0.82317500
N       -0.10787100      -1.03261100      -1.80477000
O        0.26750300       1.06672600       1.51011200
N        0.99062800       1.33255900       0.60017600
C        1.68821900       1.58855500      -0.27865400
H       -1.14710300      -0.47113900       1.02250500
H       -1.70891200      -2.01199400       0.61722500
H        2.33320100       1.82706000      -1.08776300
