15
Extracted from Q-Chem output
N       1.560183     -0.671235     -0.172063
C       1.042886      0.507065      0.550047
C       1.896602      1.677232      0.560051
N       2.583660      2.595785      0.580664
C       0.324883      0.081392     -0.681061
C      -2.127846      0.192818     -0.283693
C      -0.911824     -0.722259     -0.362274
H       1.485864     -1.542011      0.347089
H       2.412668     -0.572559     -0.703014
H       0.690489      0.236093      1.549287
H      -2.261896      0.725197     -1.225806
H      -2.005053      0.940874      0.503379
H      -3.035883     -0.373398     -0.070510
H      -1.068788     -1.465307     -1.149098
H      -0.825430     -1.286247      0.591194
