16
smiles: [C:1](/[C:2](=[N:3]/[H:12])[H:11])([H:8])([H:9])[H:10].[C:4](=[C:5]([H:14])[H:15])([C:6](=[O:7])[H:16])[H:13]
C       -1.99477000       0.04125200       1.18224100
C       -2.22555500       0.17478600      -0.28661400
N       -1.65305200       1.06856400      -0.97199100
C        1.65628000       0.09442800      -0.30041200
C        2.82180000       0.70410800      -0.47178900
C        1.60188900      -1.33280500       0.06756000
O        0.58357000      -1.94830400       0.24009200
H       -1.29596800       0.80328300       1.52318500
H       -2.93849700       0.14007100       1.72474200
H       -1.59634700      -0.94979200       1.41455100
H       -2.92139700      -0.55017100      -0.72917200
H       -1.92821100       1.00924300      -1.95020900
H        0.70598200       0.60366600      -0.41792600
H        3.75583900       0.16494400      -0.34652800
H        2.89241200       1.75049500      -0.74127200
H        2.59256800      -1.82268100       0.17868700
