10
Extracted from Q-Chem output
N       1.671406      0.085710     -0.193612
C       0.312736     -0.196454      0.030565
C      -0.744968      0.777417     -0.120803
N      -1.969941      0.507239      0.089889
N      -0.395432     -2.425292      0.710188
N      -0.056631     -1.404891      0.398216
H       2.090874     -0.392510     -0.975505
H       2.262837      0.045725      0.621674
H      -0.365604      1.755560     -0.434542
H      -2.554601      1.320093     -0.071116
