16
smiles: [C:2](=[O:3])=[C:4]([C:5]([C:6]([O:7][H:16])([H:14])[H:15])([H:12])[H:13])[H:11].[N:1]([H:8])([H:9])[H:10]
N        2.35781000       1.20268200      -0.00926500
C        0.12747300      -1.33386400       1.28451200
O        1.02339800      -1.11365700       1.98374900
C       -0.87162100      -1.67764200       0.50659900
C       -1.74033200      -0.72770500      -0.28005000
C       -0.97584300       0.45651800      -0.83120200
O       -0.42306800       1.15430500       0.27077600
H        2.82245800       2.04604200       0.29910400
H        2.81522100       0.89468200      -0.85671500
H        2.51329800       0.49440300       0.69529700
H       -1.07493100      -2.74109900       0.49855700
H       -2.18486000      -1.27227500      -1.11544100
H       -2.56846700      -0.35751000       0.33280900
H       -0.18522200       0.10428100      -1.50416300
H       -1.65276400       1.10477200      -1.40113500
H        0.26574600       1.74576500      -0.03345100
