13
Extracted from Q-Chem output
O       0.680494      1.500405     -0.998384
C       1.522586      0.864333     -0.223658
C       1.494075     -0.476400     -0.029240
C      -0.647191     -0.418630      0.850464
C      -1.390293      0.420522      0.137743
N      -1.404139     -1.081742     -0.173933
H       2.190167      1.499392      0.360164
H       2.202268     -0.924346      0.656509
H       0.962721     -1.129292     -0.709055
H      -0.321441     -0.701685      1.835782
H      -0.278189      1.093544     -0.799667
H      -2.186808      1.098204      0.402512
H      -2.189061     -1.564690      0.271566
