9
Extracted from Q-Chem output
O       1.851070      1.009389      0.359099
C       1.093914     -0.088525      0.659721
C      -0.093504     -0.352987      0.165593
C      -1.280751     -0.177474     -0.614320
O      -1.055271     -1.312459      0.262966
H       1.571866     -0.751784      1.366808
H       1.379133      1.561331     -0.268379
H      -2.057885      0.503131     -0.280170
H      -1.279018     -0.420007     -1.672739
