14
Extracted from Q-Chem output
C      -0.297875     -1.609173      0.372885
C      -0.154922     -0.310737     -0.411280
C      -0.694658      0.888911      0.353782
O      -0.048845      2.024603     -0.228234
C       1.710733      1.315201     -0.700577
C       1.271782      0.073099     -0.714034
H       0.272207     -1.566299      1.303734
H       0.070866     -2.455143     -0.208483
H      -1.343259     -1.808944      0.619738
H      -0.704102     -0.407037     -1.355117
H      -1.776921      0.999686      0.255953
H      -0.428104      0.807482      1.411765
H       0.175990      2.681562      0.434306
H       2.012119     -0.679021     -0.974426
