14
Extracted from Q-Chem output
C      -0.247348     -1.442798      0.186308
C      -0.078710     -0.034959     -0.405991
C      -0.748996      0.985233      0.508859
O      -0.863495      2.256642     -0.051890
C       1.381933      0.886578     -0.865753
C       1.807140     -0.206218     -0.453924
H       0.197849     -1.526571      1.179391
H       0.169983     -2.219021     -0.454503
H      -1.318371     -1.631930      0.282229
H      -0.534696     -0.023019     -1.393821
H      -1.765950      0.631447      0.708258
H      -0.207243      1.001231      1.466209
H      -0.014902      2.427555     -0.487811
H       2.290646     -1.105111     -0.136937
