14
Extracted from Q-Chem output
C      -1.157599      0.845171     -0.231400
C      -1.794890     -0.294541      0.380890
C       0.336019      0.384661     -0.229977
C       0.988173     -0.927895     -0.679983
O       1.831138     -0.899225      0.531341
C       1.316689      0.315089      0.808030
H      -1.461929      1.037575     -1.259356
H      -1.192289      1.790552      0.316316
H      -1.656982     -0.491523      1.435890
H      -2.203776     -1.086416     -0.231127
H       0.362121     -1.809158     -0.702390
H       1.633408     -0.851530     -1.558711
H       1.597909      0.894691      1.676733
H       1.304341      1.154861     -0.387098
