11
Extracted from Q-Chem output
O       0.114784      1.423259     -1.023575
C      -0.280520      0.885256      0.072294
C      -1.085764     -0.446873     -0.066290
C       0.164021     -1.252467     -0.329515
C       1.053161     -0.306733     -0.244663
N       0.120365      1.174487      1.295702
H      -1.768907     -0.421335     -0.912639
H      -1.580066     -0.727974      0.860923
H       0.318641     -2.300965     -0.537157
H       2.047885      0.093428     -0.297587
H       0.720325      1.999194      1.237643
