15
Extracted from Q-Chem output
C      -2.182053      0.308891     -0.227947
N      -1.249993     -0.821142     -0.155961
C       0.182840     -0.542594      0.250927
N       0.390391     -1.098157      1.343948
C       1.044084      0.253133     -0.680008
O       0.609522      0.613211     -1.750312
C       2.435992      0.534334     -0.204073
H      -3.200922     -0.064356     -0.325310
H      -1.942531      0.952888     -1.073063
H      -2.102724      0.878709      0.697732
H      -1.318887     -1.408974     -0.982400
H      -0.997390     -1.378591      0.927727
H       2.952286     -0.408237     -0.015268
H       2.968907      1.122192     -0.947706
H       2.398606      1.059445      0.751580
