16
Extracted from Q-Chem output
O       2.019744      1.190736      0.272841
C       2.331664     -0.072992     -0.052338
C       0.427799     -0.966968     -0.729524
C      -0.533213     -0.285165      0.177063
C      -1.974771     -0.122218     -0.234674
C      -1.077805      1.071598     -0.181190
H       1.520942      1.255706      1.096011
H       2.247233     -0.766220      0.795327
H       1.664082     -0.523639     -0.983383
H       0.576843     -2.021735     -0.503035
H       0.146643     -0.850398     -1.780395
H      -0.378187     -0.473192      1.235295
H      -2.262365     -0.505625     -1.205100
H      -2.733000     -0.228334      0.529888
H      -0.741434      1.503874     -1.114577
H      -1.235483      1.793269      0.609470
