18
smiles: [C:1]1([H:9])([H:10])[C@:2]([C:3]([H:12])([H:13])[H:14])([H:11])[C@@:4]1([C:5]([H:16])([H:17])[H:18])[H:15].[C:6](#[N:7])[H:8]
C        1.17661400       0.18771100       1.35762500
C        0.45130200       0.79681500       0.19136300
C        1.20800500       1.17448300      -1.05487700
C        0.22598200      -0.64196100       0.54258900
C       -1.08279700      -1.09753200       1.13190300
C       -1.93398500      -0.24661300      -2.29866200
N       -2.69646200      -0.37770600      -3.14091000
H       -1.22093800      -0.12395000      -1.51268900
H        0.87044900       0.46713100       2.35851100
H        2.23949200       0.00779300       1.24993200
H       -0.36317400       1.46740300       0.44870500
H        1.66706100       2.16130700      -0.95899400
H        0.55295700       1.19218500      -1.92920800
H        2.00689400       0.45633400      -1.25476900
H        0.69271300      -1.35625800      -0.12926000
H       -1.82339300      -1.29326800       0.35280700
H       -0.95948800      -2.01335200       1.71479000
H       -1.49490900      -0.33547300       1.79780800
