11
Extracted from Q-Chem output
O      -1.295878      1.049993      1.482966
C      -0.522868      0.389417      0.646779
C      -0.934654     -0.489101     -0.458145
N       0.416338     -1.098443     -0.332662
C       1.386272     -0.139042     -0.647635
C       0.821376      0.084868      0.754367
H      -1.730666     -1.200179     -0.240027
H      -1.108190     -0.000883     -1.422034
H       1.172093      0.613444     -1.408138
H       2.402613     -0.514145     -0.654498
H      -0.736944      1.391722      2.194564
