12
Extracted from Q-Chem output
C      -2.151581      0.038109      0.155341
C      -0.684269      0.109475      0.069906
C       0.335443      0.972365      0.167390
C       1.203213     -0.175234     -0.114046
C       2.458281     -0.535888     -0.271514
O       0.073287     -1.032616     -0.202696
H      -2.569011      1.022082      0.361177
H      -2.447713     -0.651607      0.948623
H      -2.563914     -0.338695     -0.783099
H       0.466687      2.021123      0.360964
H       3.248092      0.195586     -0.180936
H       2.708828     -1.565126     -0.488912
