12
Extracted from Q-Chem output
C      -2.143094      0.128977      0.074909
C      -0.748365     -0.357302     -0.238929
C       0.356867      0.462890      0.271069
C       1.586198      0.058079     -0.065500
C       2.508939     -0.587213     -0.760404
O      -0.552268     -1.365539     -0.886358
H      -2.310537      1.100586     -0.395860
H      -2.266203      0.262484      1.151945
H      -2.874016     -0.586293     -0.294584
H       0.186473      1.339272      0.877380
H       2.572568      0.636892      0.186127
H       3.095665     -1.358618     -0.255703
