11
Extracted from Q-Chem output
C       1.343418     -0.756581     -0.033152
N       0.698044      0.400377     -0.208728
C      -0.552388      0.549478     -0.137794
N      -1.246781      1.692240     -0.120119
C      -1.382357     -0.777872     -0.023012
N      -0.694212     -1.784227      0.000766
H       2.034118     -1.063526     -0.815754
H       1.631261     -1.023404      0.982740
H       0.015597     -2.471627     -0.154212
H      -0.789389      2.582581     -0.165912
H      -2.247290      1.625881     -0.161672
