16
Extracted from Q-Chem output
C      -2.068248     -0.854627     -0.355019
C      -0.706943     -0.196046     -0.475864
O      -0.933622      1.141411     -0.872068
C       0.037020     -0.281099      0.859036
N       1.458372      0.065920      0.839405
C       2.023915      0.825930     -0.034997
O       1.976869      1.495901     -1.005840
H      -1.975685     -1.910820     -0.097389
H      -2.602141     -0.771515     -1.301073
H      -2.661699     -0.355109      0.413739
H      -0.118123     -0.722316     -1.240327
H      -0.107293      1.525557     -1.180140
H      -0.472975      0.367108      1.577834
H      -0.016715     -1.303545      1.237433
H       2.806080      0.245863      1.116945
H       3.359190      0.776120      0.528013
