12
Extracted from Q-Chem output
O       0.307990     -0.155929      1.942784
N       0.478087      0.457230      0.699283
C       0.147906     -0.398209     -0.392575
C      -0.725328      0.679521     -0.972299
N      -0.628920      1.336995      0.354973
C       0.440624     -1.661977     -0.617944
H       1.030113      0.193251      2.470665
H      -1.739333      0.386211     -1.241282
H      -0.265428      1.232870     -1.793958
H      -0.268254      2.283088      0.302372
H       0.072326     -2.160623     -1.503605
H       1.039268     -2.224898      0.085367
