16
Extracted from Q-Chem output
C       2.661202      0.366238      0.067942
O       1.286314      0.608979      0.225018
C       0.569182     -0.557474      0.542050
C      -0.848211     -0.187223      0.837847
C      -2.182829      0.690659     -1.415601
C      -1.886438     -0.955817      0.417549
N      -2.797454     -1.376390     -0.198305
H       3.132052      1.315723     -0.181249
H       2.853304     -0.350609     -0.741019
H       3.108097     -0.024201      0.991430
H       1.025569     -1.041604      1.421085
H       0.611480     -1.282480     -0.283734
H      -1.026454      0.528987      1.631503
H      -2.640427      0.920704     -0.478388
H      -2.415347      1.334512     -2.261145
H      -1.436384     -0.060157     -1.557204
