13
Extracted from Q-Chem output
O      -1.654193     -1.083094      0.650768
C      -1.331517     -0.913435     -0.496561
C       0.087615      1.364886      0.830550
N       0.704663      0.667149     -0.285429
C       1.185148     -0.663200     -0.081672
C      -0.003555     -0.424114     -0.955890
H      -0.449006      0.713083      1.525344
H      -2.049662     -1.125139     -1.314271
H       0.880522      1.886350      1.367807
H      -0.605938      2.111827      0.442216
H       0.976326     -1.141146      0.872175
H       2.131450     -0.915363     -0.546557
H       0.120711     -0.425013     -2.033931
