13
Extracted from Q-Chem output
O      -1.469795     -1.154643      0.878614
C      -1.115264     -0.371147     -0.127450
C      -0.157972      1.141302      0.451455
N       0.851552      0.701659     -0.515032
C       1.361604     -0.604520     -0.097304
C       0.160330     -0.540340     -0.932882
H      -0.934576      0.046737      1.077841
H      -1.917365      0.104881     -0.710872
H       0.243225      1.323625      1.456480
H      -0.716537      2.007171      0.106934
H       1.257100     -0.906845      0.939969
H       2.297778     -0.872314     -0.568635
H       0.136840     -0.851173     -1.970462
