21
smiles: [C:1](/[C:2](=[C:3](/[O:4][C:5]([C:6]([C:7]([H:19])([H:20])[H:21])([H:17])[H:18])([H:15])[H:16])[H:13])[H:11])([H:8])([H:9])[H:10].[H:12][H:14]
C       -3.74013700      -0.07323000       0.61666100
C       -2.37667500      -0.66364400       0.78778800
C       -1.26361500      -0.05810800       0.40278400
O       -0.03216800      -0.58387900       0.62089800
C        1.00139300      -0.05692800      -0.19009900
C        2.32071900      -0.64092700       0.26465200
C        3.48934000      -0.12820200      -0.56605000
H       -3.69352000       0.90020000       0.12467200
H       -4.38105800      -0.72218700       0.01399800
H       -4.23923200       0.06291200       1.57983000
H       -2.29285700      -1.63581500       1.26403400
H       -0.87049000       2.35523000      -2.79769600
H       -1.27654700       0.91583700      -0.08690600
H       -0.59779400       1.71599300      -2.53046900
H        1.01789600       1.03861500      -0.10498100
H        0.81226300      -0.30672200      -1.24274400
H        2.25861200      -1.73032800       0.20158100
H        2.46564200      -0.39537100       1.31979800
H        3.58034500       0.95870300      -0.49775000
H        3.37135200      -0.38556300      -1.62137900
H        4.43070600      -0.55910800      -0.22340400
