21
Extracted from Q-Chem output
C      -3.676934      0.286304      0.046391
C      -2.398237     -0.532794     -0.064503
C      -1.160394      0.339394     -0.064405
O      -0.019334     -0.475169     -0.156762
C       1.182421      0.252952     -0.147413
C       2.349319     -0.707753     -0.237096
C       3.690173      0.013276     -0.210715
H      -3.776786      0.985154     -0.787782
H      -4.558475     -0.356105      0.044690
H      -3.695671      0.869401      0.970494
H      -2.324690     -1.238734      0.766796
H      -2.404883     -1.127416     -0.981694
H      -1.120850      0.941843      0.857058
H      -1.191383      1.044710     -0.910074
H       1.252411      0.851927      0.774554
H       1.204180      0.958502     -0.993178
H       2.250014     -1.292440     -1.155309
H       2.280654     -1.414534      0.593896
H       3.817508      0.580937      0.714295
H       3.782750      0.713754     -1.044408
H       4.518208     -0.693209     -0.281453
