14
Extracted from Q-Chem output
C      -1.411336      0.192184     -0.006849
C      -0.561882     -1.097382     -0.141857
C       0.659606     -0.338350      0.436933
N       1.963510     -0.605804     -0.105339
C      -0.095950      0.946125      0.114613
N       0.341970      2.091217     -0.159400
H      -0.409503      2.715719     -0.448631
H      -1.981079      0.220497      0.924055
H      -2.065221      0.467558     -0.833987
H      -0.894939     -1.982796      0.396162
H      -0.391968     -1.355786     -1.188171
H       0.689004     -0.475353      1.522317
H       2.013733     -0.288822     -1.065974
H       2.671134     -0.094364      0.404474
