10
Extracted from Q-Chem output
C      -1.172489      0.711157     -0.004893
C       0.434914     -1.061030      0.121672
C       1.272392      0.032784      0.008044
O       0.828562      1.151048     -0.340636
H      -1.049543      1.141733      0.976813
H      -1.838101     -0.137694     -0.052391
H      -1.282253      1.411894     -0.818883
H       0.725009     -1.951320      0.669117
H      -0.186765     -1.230535     -0.750352
H       2.351290     -0.039781      0.198204
