17
Extracted from Q-Chem output
C       2.526884     -0.349895      0.561786
C       1.306931     -0.459259     -0.356331
C       0.092607     -0.486596      0.546852
C      -0.475063      0.877508      0.714260
N      -1.274574      0.334803     -0.387217
C      -2.648109      0.057729      0.060954
H       2.504941      0.574869      1.142813
H       2.563686     -1.185183      1.262611
H       3.445610     -0.354813     -0.025769
H       1.299128      0.381308     -1.061801
H       1.376856     -1.383713     -0.933296
H      -0.896193     -0.789983     -0.300986
H       0.135737      1.722879      0.399536
H      -1.038088      1.087654      1.622031
H      -3.169365     -0.514723     -0.706661
H      -3.153946      1.015709      0.189287
H      -2.677921     -0.491198      1.008583
