18
Extracted from Q-Chem output
C      -2.550307      0.678160     -0.206468
C      -1.421426     -0.326985     -0.320387
C      -0.904243     -0.939848      0.820735
N       0.901750     -0.225463      1.261439
C       1.462237      0.354794      0.242096
O       0.739466      1.072736     -0.541711
C       2.909212      0.196223     -0.127762
H      -2.565843      1.361136     -1.058529
H      -3.532241      0.197354     -0.158284
H      -2.437663      1.288111      0.693202
H      -1.389092     -0.914198     -1.235079
H      -0.302121      0.526551     -0.515897
H      -1.289646     -0.670020      1.795629
H      -0.510399     -1.947135      0.759887
H       1.515029     -0.874404      1.738710
H       2.974485     -0.372625     -1.057490
H       3.475312     -0.313901      0.650812
H       3.345509      1.178115     -0.310246
