9
Extracted from Q-Chem output
O       1.338471     -0.831207      0.418260
C       1.648473      0.258442     -0.162843
O       0.585526      0.616708     -0.757377
C      -0.027926     -0.581923     -0.150066
C      -2.725095      0.786487     -0.545054
N      -2.293325      0.587406      0.524471
H       2.601437      0.776090     -0.142800
H      -0.278275     -1.320056     -0.905879
H      -0.855088     -0.268833      0.551448
