15
Extracted from Q-Chem output
C      -0.579268      1.205442     -0.418810
C      -0.588293     -0.133101      0.308917
C      -1.294665     -1.207569     -0.518799
C       0.801623     -0.597284      0.685086
C       1.904869      0.033677      0.387288
N       2.939841      0.568470      0.016928
H      -0.123295      1.989793      0.188666
H      -1.597642      1.515601     -0.659453
H      -0.019364      1.137843     -1.355127
H      -1.151087     -0.008554      1.241782
H      -0.782567     -1.352730     -1.472981
H      -2.328634     -0.922013     -0.725876
H      -1.308539     -2.166393      0.003321
H       0.906671     -1.528345      1.231635
H       3.320570      1.255310      0.662872
