15
Extracted from Q-Chem output
C      -0.604262      1.371027     -0.286748
C      -0.448141      0.020001      0.402379
C      -0.904638     -1.125136     -0.494672
C       0.994012     -0.195001      0.894845
C       1.968229     -0.216603     -0.195670
N       2.717487     -0.231017     -1.064440
H      -0.297734      2.191618      0.365573
H      -1.644451      1.539761     -0.570264
H       0.001479      1.417711     -1.195204
H      -1.066955      0.019403      1.305559
H      -0.305027     -1.168762     -1.407301
H      -1.947346     -0.990608     -0.787144
H      -0.820370     -2.089482      0.011109
H       1.074523     -1.141534      1.434377
H       1.283193      0.598622      1.587599
