15
Extracted from Q-Chem output
C      -0.562240      1.259817     -0.354729
C      -0.512353     -0.092499      0.348502
C      -1.177470     -1.177641     -0.504965
C       0.892006     -0.499981      0.727552
C       2.010247     -0.041223      0.077510
N       3.001085      0.522617     -0.309728
H      -0.151256      2.054414      0.271739
H      -1.592587      1.523953     -0.598016
H       0.004309      1.241485     -1.289483
H      -1.080998     -0.008806      1.280780
H      -0.660132     -1.282027     -1.461841
H      -2.221910     -0.927414     -0.707589
H      -1.153319     -2.146391     -0.002914
H       1.058677     -1.288283      1.450190
H       2.157261      0.757540      0.931476
