14
Extracted from Q-Chem output
C      -2.091193      0.504166     -0.137711
C      -0.909123     -0.330643     -0.599095
N       0.187698     -0.255992      0.340856
C       1.462574     -0.168459      0.067910
N       2.126363     -0.570975      1.133559
C       2.023013      0.274935     -1.186612
N       2.449519      0.633653     -2.188889
H      -1.815611      1.556973     -0.062139
H      -2.437968      0.172166      0.842123
H      -2.919600      0.412927     -0.842063
H      -0.567591      0.006940     -1.583735
H      -1.213059     -1.376947     -0.710985
H       0.817472     -0.649140      1.471202
H       3.063103     -0.248396      1.327239
