16
smiles: [H:7][H:9].[O:1]=[C:2]([C:3]1([H:10])[C:4]([H:11])([H:12])[C:5]([H:13])([H:14])[C:6]1([H:15])[H:16])[H:8]
O       -2.29959800      -0.29988600       0.22213900
C       -1.65438700       0.29967900      -0.59473800
C       -0.16548200       0.24123100      -0.72131900
C        0.64587800      -0.56593300       0.30405900
C        1.65671400       0.59825200       0.36896300
C        0.60134900       1.52047700      -0.27749300
H       -1.72625200      -2.76505500       1.00719300
H       -2.15868100       0.98364100      -1.31191900
H       -1.55105900      -3.47059700       1.16835200
H        0.08624500      -0.01070000      -1.75592600
H        1.01414300      -1.54194400      -0.00820100
H        0.08143000      -0.68190300       1.22958600
H        2.03105400       0.88621300       1.35057800
H        2.50617400       0.43583200      -0.29566500
H        0.03821800       2.08052000       0.47137800
H        0.92847200       2.20652400      -1.05762900
