13
smiles: [C:1]1([H:9])([H:10])[C:2]([O:3][H:11])=[C:4]([H:12])[O:5]1.[C:6](=[O:7])([H:8])[H:13]
C       -2.05907700       0.13229100      -0.62182600
C       -0.83931400       0.10384000       0.24595400
O       -0.50299900      -0.73110600       1.24498200
C       -0.38712400       1.16618700      -0.41415300
O       -1.48006100       1.29160500      -1.28489400
C        2.49629300      -0.71282200       0.24169100
O        2.22596600      -0.23269200       1.30295500
H        1.74301800      -1.24829000      -0.36751500
H       -2.18706900      -0.69509600      -1.32027200
H       -3.00041600       0.38983600      -0.13559500
H        0.34337900      -0.46873600       1.61378000
H        0.45346500       1.84205200      -0.44830100
H        3.51430200      -0.64882600      -0.18854600
