13
Extracted from Q-Chem output
C      -0.971650     -0.461540     -0.712477
C      -0.096075      0.239490      0.283584
O      -0.429271      0.142351      1.608987
C      -0.379279      1.581031     -0.273573
O      -1.224023      1.460119     -1.163161
C       1.204032     -0.660587      0.116555
O       1.797355     -0.843425      1.234195
H       0.595783     -1.611657     -0.281412
H      -0.564725     -0.705273     -1.685213
H      -1.914611     -0.916050     -0.420732
H       0.416588     -0.278427      1.969906
H      -0.001126      2.557380      0.039742
H       1.774325     -0.365161     -0.787134
