10
Extracted from Q-Chem output
O       1.864934      0.232652     -1.244526
C       1.586853      0.300991     -0.083966
N       0.756858      0.239706      0.878558
C      -1.206241      0.439161     -0.116423
C      -0.943897     -0.873419      0.001013
H       2.303431      0.540306      0.843278
H      -1.724559      0.982117      0.662880
H      -0.950891      0.981321     -1.018926
H      -0.469372     -1.421509     -0.803984
H      -1.241465     -1.431375      0.879068
