10
Extracted from Q-Chem output
N      -2.247015      0.412632      0.337406
C      -1.336044     -0.510282      0.107589
O      -0.143326      0.138802      0.089787
C       0.999274     -0.635162     -0.065344
O       1.061429     -1.815550      0.079938
N       2.024320      0.193657     -0.368784
H      -3.208708      0.129702      0.377434
H      -2.029180      1.392043      0.485849
H       2.927450     -0.210429     -0.524065
H       1.868252      1.168763     -0.534662
