12
Extracted from Q-Chem output
C      -1.633858      0.110172      0.147997
C      -0.232805      0.317184     -0.429656
C       0.497692      1.461371      0.236296
O       1.656921      0.970931      0.605403
C       1.791692     -0.400481      0.283291
C       0.711053     -0.843674     -0.324275
H      -2.208916      1.032587      0.076015
H      -1.578801     -0.175669      1.199413
H      -2.161251     -0.677030     -0.391979
H      -0.331871      0.638813     -1.477527
H       2.725813     -0.849438      0.580388
H       0.543199     -1.849202     -0.677089
