10
smiles: [H:7][H:9].[N:1](=[C:2]1\[O:3][C@:4]1([C:5]#[N:6])[H:10])\[H:8]
N       -1.62879600       0.91612800       0.20979600
C       -0.98410500      -0.09757500      -0.08481700
O       -1.01804900      -1.24323700      -0.77549100
C        0.20229800      -0.91236500      -0.00670400
C        1.37704000      -0.61359000      -0.79249500
N        2.32539900      -0.38293300      -1.39342500
H        0.72044400       1.84889200       1.42580700
H       -2.55188800       0.92507600      -0.21751800
H        1.44477800       1.73612000       1.55663500
H        0.36973400      -1.55176000       0.85307300
