10
Extracted from Q-Chem output
N      -1.341675      1.013987      0.260229
C      -0.894593     -0.122197     -0.096541
O      -1.184866     -1.209642     -0.666003
C       0.483731     -0.498228      0.237981
C       1.496483     -0.518630     -0.767163
N       2.339205     -0.502232     -1.546329
H       0.120005      1.291443      0.944706
H      -2.305294      1.225027      0.042243
H       0.883523      0.931160      1.066082
H       0.622910     -1.177289      1.073523
