14
Extracted from Q-Chem output
O       1.980117     -0.524518     -0.797747
C       1.321869     -0.408249      0.442515
C       0.903224      1.003787      0.841142
C      -1.537882      0.785281     -0.120367
C      -1.355832     -0.652957     -0.613911
C      -0.229573     -0.673674      0.462955
N      -0.386216      0.768927      0.538980
H       1.661499      0.176772     -1.372069
H       1.900083     -1.024941      1.131544
H       1.393251      1.963060      0.904226
H      -2.066224      1.659305     -0.470259
H      -0.980177     -0.704585     -1.643064
H      -2.150934     -1.387259     -0.482974
H      -0.555035     -1.160973      1.381128
