15
Extracted from Q-Chem output
C      -2.127293      0.270655      0.318617
C      -1.104543     -0.261668     -0.640149
O      -0.330121      0.553984     -1.281773
C       0.882486     -0.531331     -0.538583
O       1.359490     -1.363399     -1.241454
C       1.575600      0.539641      0.287905
O       2.420025     -0.067200      1.226393
H      -1.716960      1.083973      0.915286
H      -2.948879      0.673753     -0.281259
H      -2.525110     -0.512387      0.963983
H      -1.356955     -1.217525     -1.123943
H      -0.110557     -0.901684      0.204680
H       2.116022      1.177230     -0.418457
H       0.851722      1.141735      0.829278
H       3.070251     -0.595550      0.756294
