10
Extracted from Q-Chem output
O       1.159789     -0.315969      1.614914
C       1.272984     -0.381772      0.418050
C       0.282386      0.196922     -0.524642
C      -1.140910     -0.193934     -0.300439
N      -0.688687      1.141157      0.006256
H       2.140015     -0.892415     -0.042671
H       0.629467      0.382306     -1.534737
H      -1.793298     -0.283999     -1.160416
H      -1.335239     -0.879426      0.517290
H      -0.526506      1.227132      1.006396
