10
Extracted from Q-Chem output
O       1.634058     -0.633203      1.434801
C       1.049111     -0.297309      0.495166
C       0.370153      0.664623     -0.294483
C      -0.963730     -0.084917     -0.234701
N      -0.901572      1.309916     -0.014235
H       0.510988     -1.555642     -0.705152
H       0.751487      0.782038     -1.300722
H      -0.367393     -1.175825     -0.988065
H      -1.120595     -0.669374      0.686798
H      -1.112985      1.626439      0.926687
