11
smiles: [C-:3]#[O+:4].[C:1]([N:2]([C:5](=[O:6])[H:11])[H:10])([H:7])([H:8])[H:9]
C        1.34849100      -0.80460600       0.24737600
N        0.02109800      -0.29549800      -0.01326900
C       -0.89769500       3.05571300      -0.26477800
O       -1.29641400       4.10494800      -0.31197300
C       -1.06574000      -1.09246500      -0.12788300
O       -1.06576900      -2.29719300      -0.02928000
H        2.02949500      -0.57325900      -0.57395200
H        1.27460500      -1.88521600       0.34879900
H        1.75327200      -0.39002100       1.17246900
H       -0.11413900       0.69363400      -0.11928000
H       -1.98632000      -0.51450300      -0.32667500
