15
smiles: [C:1]1([H:8])([H:9])[C:2]([H:10])=[C:7]1[H:15].[C:5](=[O:6])([H:13])[H:14].[O:3]=[C:4]([H:11])[H:12]
C       -1.50310100      -0.02573800       0.99883400
C       -1.60437200      -0.55613200      -0.40083600
O        0.98784200       1.09012500      -1.56849300
C        0.80007000       1.88907900      -0.69888600
C        2.11574300      -0.93287600      -0.12786300
O        2.17761200      -0.41511100       0.94829200
C       -2.00021100      -1.35834900       0.52123800
H       -0.52799600       0.04370600       1.47945900
H       -2.21614100       0.72232300       1.34309800
H       -1.43394900      -0.34885500      -1.44221800
H        0.23202100       2.82310600      -0.87352300
H        1.18450200       1.73783800       0.32814700
H        1.22055200      -1.49465300      -0.45736600
H        2.95022500      -0.87751800      -0.85319500
H       -2.40365100      -2.31074200       0.81529800
