14
Extracted from Q-Chem output
C      -0.247949      1.410625      0.468831
C       0.144050     -0.067669      0.494207
C      -0.676878     -0.902424     -0.510667
C      -2.107397     -0.862933     -0.218974
N      -3.227398     -0.824294      0.025224
C       1.568978     -0.248234      0.210290
C       2.730213     -0.391485     -0.043000
H      -0.070062      1.838087     -0.519681
H      -1.304201      1.529519      0.714485
H       0.341661      1.972999      1.191864
H      -0.050025     -0.465109      1.495091
H      -0.516689     -0.526794     -1.523811
H      -0.348998     -1.942884     -0.493962
H       3.764694     -0.519405     -0.259415
