14
Extracted from Q-Chem output
C       0.203563      1.460798     -0.001063
C       0.365774     -0.046721      0.092974
C      -0.916042     -0.840072     -0.193816
C      -1.925158     -0.606985      0.840304
N      -2.692618     -0.408026      1.669321
C       1.336114     -0.463615     -1.362718
C       1.930930     -0.788821     -0.310070
H      -0.129136      1.749118     -0.997685
H      -0.528391      1.802603      0.735073
H       1.151617      1.958474      0.197907
H       0.642663     -0.278966      1.130295
H      -1.320188     -0.550071     -1.164291
H      -0.700297     -1.907857     -0.236359
H       2.588951     -1.119284      0.466847
