13
Extracted from Q-Chem output
N       0.498561     -1.384834      0.681552
C       1.480854     -0.522693      0.732226
C       0.747612      0.775157      0.533724
C       0.403759      0.789866     -0.983700
C      -0.937479      0.226909     -0.574625
C      -0.813588     -0.801527      0.489101
N      -0.738651      0.584314      0.869225
H       1.190134      1.661562      0.973109
H       1.039572      0.214311     -1.658591
H       0.301026      1.809523     -1.348716
H      -1.877309      0.398132     -1.086023
H       0.642084     -2.381571      0.664086
H      -1.671266     -1.377212      0.812684
