11
Extracted from Q-Chem output
N      -1.996720     -0.319169     -0.114057
C      -0.668644     -0.631062     -0.176278
C       0.312908     -1.335437     -0.371720
N       2.113542      0.184866     -0.164900
N       1.350733      1.119946      0.139542
C       0.189183      1.422213      0.202525
H      -2.233452      0.415438      0.530210
H      -2.599395     -1.120936     -0.016628
H       1.026086     -2.086269     -0.606751
H       2.825815      0.059734      0.554103
H      -0.302858      2.367611      0.031316
