17
Extracted from Q-Chem output
C      -0.677050      2.023943      0.254582
C      -0.564596      0.674898     -0.407267
C       0.594006     -0.240966     -0.327538
C       2.063666     -0.207528     -0.141646
N      -0.454217     -0.492467      0.452392
C      -1.235994     -1.550070      0.663585
H      -0.053755      2.072235      1.148653
H      -1.708827      2.242014      0.539745
H      -0.350218      2.805235     -0.434501
H      -1.205909      0.534389     -1.283473
H       0.048289     -1.548800     -1.284990
H       2.420491     -1.166491      0.236701
H       2.549441     -0.024110     -1.100295
H       2.376978      0.579094      0.552585
H      -0.625030     -2.041980     -1.062299
H      -2.292697     -1.362465      0.809824
H      -0.795384     -2.396947      1.175869
