16
Extracted from Q-Chem output
C       2.074889      0.136068      0.372707
C       0.594397      0.208420      0.177563
C      -0.039659     -0.417334     -1.106204
C      -1.478576     -0.476011     -0.986667
C      -1.240454      0.643840      1.051411
O      -0.114372     -0.160593      1.305729
H       2.380476      0.870904      1.119088
H       2.597643      0.343597     -0.561306
H       2.384665     -0.849899      0.737417
H      -0.618221      1.188621      0.091680
H       0.336805      0.111362     -1.981414
H       0.374779     -1.434221     -1.109022
H      -1.920594     -1.289726     -0.427012
H      -2.113519     -0.025234     -1.740319
H      -2.195102      0.156879      1.240464
H      -1.180043      1.543013      1.672335
