12
Extracted from Q-Chem output
C      -1.826755     -0.124794     -0.932531
C      -0.447333      0.344016      0.936921
C       0.516283      0.131763     -0.039431
O       0.184260      0.128094     -1.255993
C       1.906901     -0.074055      0.287022
C       3.057387     -0.261302      0.564391
H      -2.580139      0.159356     -0.213039
H      -1.664084     -1.187520     -1.026711
H      -1.866529      0.430087     -1.858235
H      -0.271547      0.087286      1.975103
H      -1.050171      1.228455      0.767332
H       4.081662     -0.426677      0.803369
