13
Extracted from Q-Chem output
C      -1.760589     -0.030556     -0.429939
N      -0.366719      0.200060     -0.759229
C       0.383897      1.053914      0.211998
C       1.273484     -0.133904      0.419856
O       2.434125     -0.209220      1.095368
C       0.542837     -0.868366     -0.420179
H      -2.159579     -0.805856     -1.086830
H      -1.908762     -0.353027      0.613269
H      -2.334935      0.881762     -0.601783
H       0.844546      1.925492     -0.255024
H      -0.216088      1.356443      1.072984
H       2.839809     -1.065634      0.940740
H       0.557797     -1.861388     -0.848099
