16
Extracted from Q-Chem output
N       2.670681      0.700443     -0.484578
C       1.444662      0.442003     -0.286303
C       0.950501     -0.907325     -0.163156
C      -0.460476     -1.195537     -0.034567
C      -1.371551     -0.037502     -0.322822
C      -0.757355      1.218941      0.264694
O       0.532550      1.477193     -0.249362
H       2.803316      1.703610     -0.577760
H       1.660628     -1.710683     -0.274016
H       0.099354     -1.180708      1.101414
H      -0.887599     -1.407367      1.382278
H      -0.787689     -2.188882     -0.324005
H      -1.425311      0.050260     -1.412043
H      -2.377456     -0.198519      0.066899
H      -0.715606      1.128570      1.359757
H      -1.358251      2.096098      0.027456
