12
smiles: [H:8][H:12].[N-:1]([c:2]1[c:3]([H:10])[n:4][c:5]([H:11])[n+:6]#[c:7]1)[H:9]
N       -2.02360900       0.22923800       0.01899300
C       -0.75989200       0.18138400       0.04663600
C        0.27199200       1.24056500       0.41040400
N        1.56816300       1.15625400       0.43080100
C        2.20283100       0.04888600       0.11020700
N        1.37533400      -0.98013900      -0.23919400
C        0.19000700      -0.81554600      -0.23126000
H       -1.99831600      -2.01140100      -0.62813400
H       -2.38255100       1.13685100       0.29007600
H       -0.19656900       2.17970300       0.68796100
H        3.27104800      -0.07412400       0.11122500
H       -1.54707000      -2.58240800      -0.78519200
