12
Extracted from Q-Chem output
N      -2.027927      0.098665     -0.008301
C      -0.756843      0.165474      0.050795
C       0.217392      1.213022      0.408341
N       1.526723      1.097557      0.414440
C       2.122274     -0.023227      0.083272
N       1.322637     -1.075775     -0.271002
C       0.129896     -0.883425     -0.248963
H      -1.812092     -1.678003     -0.547279
H      -2.546310      0.927503      0.240042
H      -0.208594      2.167798      0.696108
H       3.192032     -0.148101      0.079775
H      -1.187823     -2.152228     -0.674704
