12
Extracted from Q-Chem output
C      -1.916388     -1.232930      0.328388
C      -0.750345     -0.643323      0.528265
O       0.280316     -0.746679     -0.352037
C       1.336695      0.161306     -0.162625
C       1.016440      1.543918     -0.697695
O       1.746336      2.482005     -0.552682
H      -2.690238     -1.149180      1.076927
H       0.055855      1.621506     -1.248518
H      -2.112144     -1.808015     -0.566953
H      -0.538184     -0.061521      1.423654
H       2.197325     -0.225397     -0.712101
H       1.624765      0.244239      0.891792
