12
Extracted from Q-Chem output
C      -1.542202     -0.439295     -0.336315
C      -0.312580     -0.223670      0.511209
O       0.815525     -1.041645      0.132204
C       1.680347      0.074350     -0.116957
C       0.531794      1.014830      0.219522
O       0.353433      2.189758      0.225343
H      -2.316449      0.274381     -0.050001
H      -1.313657     -0.301562     -1.394022
H      -1.927411     -1.449214     -0.192128
H      -0.535801     -0.337866      1.578590
H       2.038043      0.117555     -1.149536
H       2.528957      0.122378      0.572091
