12
Extracted from Q-Chem output
C      -1.339950     -0.402963     -0.121141
C      -0.324012     -0.463250      0.850110
O       0.801676     -1.199630      0.432479
C       1.385682     -0.097002     -0.243589
C       0.176928      0.874310     -0.142758
O       0.085624      2.064148      0.125589
H      -2.192544      0.237878      0.067341
H      -0.525330      0.489649     -1.103607
H      -1.438467     -1.173894     -0.879116
H      -0.453370     -0.260291      1.904696
H       1.728860     -0.341949     -1.250294
H       2.194167      0.344963      0.342784
