14
Extracted from Q-Chem output
C       1.954635      0.148722      0.361591
C       0.490020      0.523979      0.455324
N      -0.341767     -0.240600     -0.516993
C      -1.800151      0.073535     -0.426464
C      -2.323292     -0.413848      0.782598
N      -2.695936     -0.769250      1.822648
H       2.363618      0.348668     -0.631874
H       2.119966     -0.904585      0.598624
H       2.527768      0.738374      1.076510
H       0.075263      0.310261      1.440039
H       0.303926      1.574778      0.239932
H      -0.124451     -1.236374     -0.398240
H      -2.305947     -0.244837     -1.329969
H      -0.043274      0.008540     -1.455913
