14
smiles: [C:1]([C@@:2]1([H:10])[C-:3]=[O+:4][C:5]([H:13])([H:14])[O:6]1)([H:7])([H:8])[H:9].[H:11][H:12]
C       -1.56067900       0.11436100       0.21352600
C       -0.08569900       0.17802300       0.53779200
C        0.78839700      -0.68521800      -0.33662900
O        1.77189300       0.07056600      -0.68725300
C        1.68842200       1.41504100      -0.08924000
O        0.40243500       1.51792500       0.37265300
H       -1.92557800      -0.90143500       0.36205600
H       -2.11933700       0.79056100       0.86006100
H       -1.73426200       0.39838200      -0.82489700
H        0.09771300      -0.16799400       1.56923700
H       -0.72462800      -3.01805100      -1.11450600
H       -1.24887900      -3.52381000      -1.26854700
H        2.44708800       1.44113700       0.70213100
H        1.89555900       2.14941800      -0.86687600
