14
Extracted from Q-Chem output
C      -1.417771     -0.416932      0.502603
C      -0.184210      0.727090     -0.898002
C       0.808771      1.367036     -0.181992
C       1.548806      0.371459      0.456754
N       1.043680     -0.817911      0.196991
C      -0.120103     -0.732125     -0.711508
O      -0.418536     -1.683682     -1.453426
H      -2.314816     -0.070600     -0.002013
H      -1.166523      0.200927      1.361632
H      -1.533534     -1.465937      0.761987
H      -0.943995      1.175960     -1.518904
H       0.955482      2.428064     -0.062649
H       2.382500      0.499184      1.133935
H       1.437130     -1.706795      0.455942
