13
Extracted from Q-Chem output
C       1.490899      0.393935     -0.410197
C      -0.005306      0.237914     -0.402311
C      -0.601908     -1.075666      0.060798
C      -1.778347     -0.369821      0.742861
O      -0.602508      1.066538      0.664965
H       1.905231      0.135193      0.564917
H       1.779587      1.418193     -0.653542
H       1.924417     -0.273612     -1.157648
H      -0.446615      0.552286     -1.349652
H       0.098396     -1.620713      0.705316
H      -0.906358     -1.727491     -0.759433
H      -1.706429     -0.516687      1.829888
H      -1.136786      1.766128      0.282712
