19
smiles: [C:1]([C:2](=[C:3]([H:12])[H:13])[H:11])([H:8])([H:9])[H:10].[C:4]1(=[C:7]([H:18])[H:19])[C:5]([H:14])([H:15])[C:6]1([H:16])[H:17]
C       -2.05608900      -0.65269300       0.15454400
C       -1.61296200      -0.08586300      -1.15643700
C       -2.26238200       0.84170200      -1.84251600
C        1.64045300       0.33662000       0.80401100
C        1.79220900      -0.99264000       0.21628400
C        2.64983100      -0.53677500       1.39838000
C        1.03087800       1.49959100       0.79601700
H       -2.19498000      -1.73475300       0.08421000
H       -2.99526000      -0.20743800       0.48569400
H       -1.30323200      -0.47935800       0.92791900
H       -0.68255700      -0.47999700      -1.55914400
H       -1.88786800       1.21388100      -2.78836100
H       -3.19398400       1.26482700      -1.48044200
H        2.27267000      -1.07933800      -0.75141300
H        1.02556700      -1.73439400       0.40796800
H        3.69560700      -0.32344000       1.20923500
H        2.44832500      -0.97929200       2.36713500
H        0.25203800       1.71942600       0.07516200
H        1.28789400       2.27317300       1.51028100
