17
Extracted from Q-Chem output
O       1.512417     -1.970670      0.500121
C       1.478925     -1.025594     -0.558809
C       1.260629      0.419225     -0.182972
C       0.018996      0.712533      0.663785
C      -1.233213      0.868725     -0.146716
C       0.478421     -2.085855     -0.462226
C      -2.061044      1.899064     -0.067132
H       2.274036     -1.176447     -1.287730
H       2.153944      0.739776      0.361206
H       1.233390      1.012561     -1.101906
H       0.180111      1.626294      1.239571
H      -0.103858     -0.091266      1.398000
H      -1.457739      0.075358     -0.856529
H       0.547763     -2.949188     -1.118325
H      -0.519000     -1.866364     -0.093622
H      -2.953420      1.958255     -0.678202
H      -1.878967      2.719396      0.619812
