17
Extracted from Q-Chem output
O       2.459720     -0.487724      2.020446
C       2.572576     -0.647348      0.835857
C       1.526036     -0.296175     -0.182296
C       0.265372      0.329649      0.392455
C      -0.762075      0.623687     -0.670603
C      -1.688474     -0.460648     -1.136044
C      -2.215565      0.684173     -0.319261
H       3.503331     -1.087487      0.418173
H       2.001996      0.362988     -0.919222
H       1.295040     -1.214850     -0.736509
H       0.527043      1.244705      0.930360
H      -0.161177     -0.344096      1.140966
H      -0.435546      1.321775     -1.435565
H      -1.951088     -0.506894     -2.184701
H      -1.611452     -1.427015     -0.651768
H      -2.835547      1.420855     -0.812604
H      -2.490190      0.484405      0.709123
