16
Extracted from Q-Chem output
C       1.297403     -0.942528     -0.102493
C       0.119141      0.011378      0.101108
C       0.476242      1.443585     -0.263389
N      -1.015007     -0.449572     -0.711793
C      -2.242140     -0.199868     -0.369615
C      -0.297925     -0.095822      1.569596
O       0.107522      0.639909      2.421906
H       2.146490     -0.620601      0.499562
H       1.608674     -0.946347     -1.150250
H       1.037701     -1.964381      0.184197
H       0.814820      1.500477     -1.300276
H       1.267517      1.810472      0.389017
H      -0.398056      2.082772     -0.140595
H      -0.746461     -0.943361     -1.560886
H      -2.896016     -0.623953     -1.150069
H      -0.949899     -0.958698      1.801026
