9
Extracted from Q-Chem output
O      -1.398255      0.267334     -0.872759
C      -0.281839     -0.332410     -0.889090
C       0.900946      0.115073     -0.267902
C       1.972728      0.521637      0.082389
C      -0.982891     -1.016457      1.367257
N      -1.423164     -0.003474      1.742428
H      -1.534390      0.629266      0.066115
H      -0.183423     -1.111710     -1.643012
H       2.909539      0.893840      0.430390
