16
Extracted from Q-Chem output
C      -1.338431      1.594836      0.133522
C      -0.238629      0.882445     -0.101213
C      -0.150635     -0.587457     -0.505104
C      -0.997297     -1.512279      0.365850
C       1.336066     -0.849561     -0.430703
C       1.962568      0.281997     -0.126603
N       1.073002      1.349803     -0.010730
H      -2.315945      1.144139      0.038502
H      -0.491005     -0.681368     -1.543573
H      -1.292385      2.638339      0.418415
H      -0.867441     -2.552467      0.059737
H      -2.057792     -1.267496      0.285659
H      -0.706244     -1.424243      1.413809
H       1.802552     -1.801613     -0.630100
H       3.022019      0.458341     -0.006906
H       1.294779      2.173778      0.516808
