16
Extracted from Q-Chem output
C       1.169415      1.840042      0.153876
C       0.294164      0.638673      0.368632
C      -0.026231      0.210733      1.582133
C      -1.036619     -1.266439     -0.768402
C      -0.174925     -0.012112     -0.907034
C      -0.307299     -2.419058     -0.240965
N       0.266542     -3.329315      0.156318
H       0.647631      2.604397     -0.429215
H       2.067690      1.568344     -0.407597
H       1.479476      2.282922      1.099467
H       0.339200      0.721470      2.464742
H      -0.640749     -0.663636      1.756124
H      -1.430031     -1.551601     -1.746013
H      -1.896619     -1.078446     -0.121920
H       0.698105     -0.244733     -1.525301
H      -0.750546      0.724406     -1.477410
