13
Extracted from Q-Chem output
C      -2.244596     -0.304045     -0.319737
O      -1.265822     -0.883079      0.526983
C      -0.009095     -0.457124      0.403405
C       0.486004      0.612036     -0.502422
N       1.740485      0.755613     -0.355339
C       2.110659     -0.217860      0.656794
N       0.946264     -0.945348      1.086010
H      -2.348632      0.768912     -0.137609
H      -3.182527     -0.796160     -0.074582
H      -2.015277     -0.480675     -1.373979
H      -0.093207      1.207388     -1.198742
H       2.859346     -0.899049      0.241941
H       2.574940      0.301767      1.499931
