16
Extracted from Q-Chem output
C       1.843104     -0.409572      0.873893
C       1.262217      0.486189     -0.166703
C       0.150405      0.130904     -1.073298
C      -1.621574     -0.817070     -0.819365
C       0.033250      1.230007      0.011444
C      -0.849822      1.048616      1.156423
N      -1.496576      0.920355      2.097443
H       1.090556     -0.885968      1.523028
H       2.453979     -1.191129      0.419722
H       2.493616      0.175047      1.526763
H      -0.051217     -0.935277     -0.773445
H       0.077202      0.311310     -2.135307
H      -1.658468     -1.571381     -1.600215
H      -1.776224     -1.216695      0.177700
H      -2.255948      0.034535     -1.028152
H      -0.062506      2.218273     -0.430665
