17
Extracted from Q-Chem output
C       1.990982      0.582563      0.377085
C       1.195426     -0.611550      0.813963
O       0.387756     -0.480269      1.979622
C      -0.263883     -0.715772      0.744174
C      -1.181562      0.370935      0.248889
C      -1.800163      0.073537     -1.162467
C      -0.610983      0.260095     -1.993098
H       1.426231      1.507796      0.477303
H       2.893623      0.669012      0.984268
H       2.291314      0.474941     -0.667249
H       1.741709     -1.553543      0.780913
H      -0.683408     -1.719266      0.655337
H      -0.681668      1.338781      0.251577
H      -2.028508      0.450754      0.933121
H      -2.244062     -0.928829     -1.130649
H      -2.572283      0.823254     -1.340985
H      -0.060283     -0.701921     -1.979406
