18
smiles: [C:1]([C:2]([C@@:3]([C:4]([H:14])([H:15])[H:16])([N:5]=[C:6]=[O:7])[H:13])([H:11])[H:12])([H:8])([H:9])[H:10].[H:17][H:18]
C       -1.42411900      -0.70690700      -1.04605600
C       -1.05543500       0.17169900       0.13955000
C        0.27652700       0.90384500      -0.01747100
C        0.54864200       1.84198300       1.14756900
N        1.37150200      -0.04307200      -0.12089700
C        1.91781600      -0.72009400      -0.93932400
O        2.52359200      -1.41595300      -1.65619400
H       -1.45712700      -0.12796200      -1.97256000
H       -0.70767700      -1.51876500      -1.18481200
H       -2.40586000      -1.16084900      -0.90460200
H       -1.82798900       0.93116800       0.29204900
H       -1.01599500      -0.42437000       1.05626600
H        0.24707000       1.48713900      -0.94478500
H       -0.24060000       2.59168700       1.22324900
H        0.58536300       1.28255200       2.08423800
H        1.50227600       2.35423600       1.01939400
H        0.68446300      -2.38777400       1.41259300
H        0.40626900      -3.01508500       1.70153200
