18
Extracted from Q-Chem output
C      -1.627068     -0.566109     -1.110754
C      -1.252737      0.389099      0.012881
C       0.251507      0.611898      0.158492
C       0.574790      1.656959      1.215055
N       0.912076     -0.646251      0.534150
C       1.620301     -1.345704     -0.292398
O       2.089172     -1.522975     -1.352697
H      -1.257007     -0.207326     -2.074284
H      -1.208561     -1.560601     -0.944074
H      -2.710044     -0.673604     -1.188675
H      -1.722590      1.362702     -0.155779
H      -1.638889      0.016519      0.967218
H       0.653343      0.940371     -0.806355
H       0.107847      2.611478      0.966777
H       0.204518      1.335002      2.190793
H       1.651866      1.808670      1.293764
H       1.373841     -1.765151      1.164831
H       1.938553     -2.409249      0.684524
