16
Extracted from Q-Chem output
C       2.881395      0.135908      0.263333
O       1.621187      0.375865      0.486272
C       0.710101      0.861502     -0.282157
C      -0.676858      0.964351      0.240145
C      -1.644875     -0.083678     -0.331457
C      -1.265571     -1.510206      0.040284
H       3.301546      0.363199     -0.706459
H      -0.270831     -1.765412     -0.331783
H       3.426683     -0.248689      1.105848
H       0.991939      1.112756     -1.300765
H      -0.638088      0.870206      1.329518
H      -1.072811      1.963070      0.025316
H      -1.678332      0.018366     -1.421023
H      -2.654326      0.139443      0.027302
H      -1.253262     -1.642573      1.125211
H      -1.972491     -2.230400     -0.375257
