16
Extracted from Q-Chem output
C       2.161157     -0.566298      0.205706
O       1.422264      0.559110      0.613119
C       0.454001      0.847106     -0.172079
C      -0.892397      1.257470      0.299781
C      -1.603294      0.022029     -0.278374
C      -0.577145     -1.115214     -0.045057
H       2.555366     -0.449953     -0.808411
H       0.737238     -1.149128     -0.071847
H       2.934562     -0.756154      0.944086
H       0.636834      0.789871     -1.245566
H      -0.918375      1.261517      1.389961
H      -1.248883      2.216621     -0.079819
H      -1.752169      0.174749     -1.350916
H      -2.590181     -0.171281      0.154874
H      -0.635284     -1.421641      1.005243
H      -0.806569     -1.989578     -0.659590
