12
Extracted from Q-Chem output
C       1.772966      1.062219      0.202834
O       1.474035     -0.050602      0.987549
C       0.745883     -0.451115     -0.161218
C      -0.696050     -0.678758      0.177453
C      -1.659599      0.410612      0.141490
O      -1.611541     -0.568517     -0.890955
H       0.733229      0.478395     -0.853460
H       2.637560      0.738769     -0.435279
H       1.245522     -1.261405     -0.691294
H      -0.862611     -1.512926      0.855163
H      -1.324234      1.404450     -0.138857
H      -2.534655      0.363916      0.781048
