11
Extracted from Q-Chem output
N       0.779306      0.678605     -0.383457
C       1.486912     -0.372391     -0.632687
O       0.952427     -1.487748     -0.488103
C      -0.825542     -0.597618      0.086714
C      -1.233008      0.609213      0.858405
O      -1.348799      0.614589      2.052920
H       1.168972      1.608771     -0.464804
H       2.524905     -0.299865     -0.974047
H      -0.841723     -1.504496      0.677212
H      -1.229102     -0.679881     -0.914406
H      -1.461348      1.497404      0.239794
