13
Extracted from Q-Chem output
C      -1.534812      0.039074      0.041364
C      -0.372332     -0.843975      0.422434
C       0.586039     -0.012396     -1.118665
C       1.606186      0.127976      0.035462
N       0.444068      0.295645      0.948411
C      -0.321570      0.906413     -0.237652
H      -2.135500     -0.266675     -0.815054
H      -2.149626      0.352997      0.885867
H      -0.353947     -1.828630      0.896329
H       0.062339     -1.113243     -0.819937
H       2.194617      1.044836     -0.043133
H       2.266452     -0.710797      0.267618
H      -0.310894      1.984400     -0.389552
