14
Extracted from Q-Chem output
C      -2.364656      0.089991     -0.053593
C      -0.998529     -0.277035     -0.583543
N      -0.026999      0.652609     -0.273240
O      -0.763068     -1.299581     -1.171199
C       2.134315     -0.461311      1.003756
C       2.177895     -0.003724     -0.233304
O       1.165078      0.567808     -0.956880
H      -2.730633     -0.736724      0.553270
H      -2.369779      1.002182      0.543277
H      -3.041076      0.209608     -0.900087
H      -0.291627      1.614207     -0.128435
H       1.232923     -0.441222      1.598592
H       3.030778     -0.886425      1.430170
H       3.063488     -0.027986     -0.855395
