14
Extracted from Q-Chem output
C      -1.935627      0.019901      0.125426
C      -0.676979      0.025450     -0.704772
N      -0.097568      1.175967     -1.091636
O      -0.057506     -1.034228     -0.925350
C       1.491624     -1.000582      0.622308
C       1.924135      0.209476      0.140132
O       1.196893      1.245473      0.292688
H      -1.679097      0.277119      1.157590
H      -2.656618      0.756546     -0.231368
H      -2.391181     -0.968113      0.110879
H      -0.624215      1.978725     -0.752631
H       0.696871     -1.044603      1.353081
H       2.053005     -1.907146      0.435995
H       2.780105      0.258911     -0.537097
