10
Extracted from Q-Chem output
O      -1.178011     -1.779690      0.161296
C      -0.804062     -0.453542     -0.056366
C       0.423899      1.967737     -0.329792
O       1.231790      1.005147      0.029466
C       0.671631     -0.282828      0.193774
O       1.407094     -1.151794      0.518988
H      -0.392498     -2.279748      0.408001
H      -1.023331     -0.136795     -1.080798
H      -1.354018      0.229560      0.597552
H       1.104454      2.841868     -0.381577
