10
Extracted from Q-Chem output
O      -1.290247     -1.485725      0.116961
C      -0.543862     -0.419029     -0.248516
C       0.274697      1.666013      0.349575
O       1.288776      0.872726     -0.110087
C       0.933564     -0.443750     -0.005984
O       1.653047     -1.346094      0.278626
H      -0.901183     -1.902732      0.892761
H      -0.786675     -0.108200     -1.263533
H      -0.677294      0.680510      0.463597
H       0.115581      2.432934     -0.434836
