14
Extracted from Q-Chem output
N      -0.359380      3.219318     -0.986657
C      -0.313907      2.117462     -0.635640
C      -0.260125      0.792510     -0.192564
C       0.888603      0.272969      0.558736
C       0.846276     -1.204721      0.390511
C      -0.211536     -1.545982     -0.338304
C      -1.050498     -0.371751     -0.746394
H       0.028033      0.729666      1.380207
H       1.826084      0.822654      0.572888
H       0.737188      0.385918      1.989708
H       1.586154     -1.868631      0.813525
H      -0.463217     -2.566164     -0.601287
H      -1.156501     -0.321440     -1.835664
H      -2.067386     -0.473557     -0.344994
