12
Extracted from Q-Chem output
C      -1.569093     -0.550601      0.613030
C      -0.223723     -0.834420     -0.024444
C       0.720948      0.240168      0.088528
N       0.535076      1.531010     -0.199143
N       2.068034     -0.410169     -0.712153
N       3.120628     -0.669964     -0.867021
O       0.028647     -1.931050     -0.498139
H      -1.563818      0.337519      1.242868
H      -1.868358     -1.421882      1.193823
H      -2.303033     -0.412105     -0.184532
H       0.018129      1.849962     -1.004148
H       1.026887      2.241125      0.313903
