17
Extracted from Q-Chem output
C      -1.822035     -1.387431      1.399146
C      -1.047150     -0.225680      0.882632
C       0.997035      0.531707     -1.356368
C       1.797399      0.175883     -0.101688
O       1.627816      1.103320      0.939302
C      -0.447125      0.891434     -1.073953
O      -1.151036     -0.185853     -0.406516
H      -1.136952     -2.010863      1.980852
H      -2.546061     -1.004713      2.124143
H      -2.326485     -1.982617      0.632839
H       1.443231      1.406084     -1.838817
H       1.049995     -0.297038     -2.068772
H       2.860368      0.152211     -0.350455
H       1.528281     -0.836079      0.229277
H       0.750360      0.918010      1.320162
H      -1.002383      1.062455     -1.995344
H      -0.514009      1.772757     -0.437007
