8
Extracted from Q-Chem output
O      -2.030772      1.061498      0.965489
C      -1.165381      0.610257      0.388402
C      -0.278466      0.179950     -0.672781
O      -0.837822      0.529033     -1.752009
C       0.877659     -0.451544     -0.313851
O       1.303838     -0.745734      0.930444
H       0.669484     -0.480053      1.603236
H       1.570033     -0.769228     -1.081715
