8
Extracted from Q-Chem output
O      -0.694667     -0.540003      0.746489
C      -0.966920      0.675792      0.648412
C       0.424359      0.908709     -0.858980
O       0.754264      1.892377     -1.330200
C       0.549029     -1.046939     -0.044542
O       1.546456     -1.227892      0.559471
H      -1.883594      0.893288      1.229723
H       0.136407     -1.627849     -0.876563
