13
smiles: [C:1]([N:2]([C:3](=[O:4])[H:13])[H:10])([H:7])([H:8])[H:9].[O:5]=[C:6]([H:11])[H:12]
C       -1.88855600      -0.07450000       0.14414400
N       -0.64495300      -0.12874200      -0.59022900
C       -0.24853600      -1.21654100      -1.28935500
O       -0.86697900      -2.25053600      -1.38857900
O        1.70350500       1.72261200      -0.07180400
C        2.37198800       1.05631700       0.66242300
H       -2.55039400       0.69734000      -0.25365600
H       -1.70990000       0.12088400       1.20313600
H       -2.37618100      -1.04148300       0.04230100
H       -0.03734900       0.67028100      -0.58761500
H        3.33341700       1.42168900       1.07195500
H        2.06473200       0.03890800       0.97222100
H        0.73083100      -1.06438700      -1.77775200
