9
Extracted from Q-Chem output
O       1.827645      0.024975     -1.092304
C       0.845916     -0.251044     -0.343016
C       0.038722      0.717392      0.274676
C      -0.963451     -0.430376      0.332452
O       0.042250     -1.311721     -0.331998
H       0.987610      1.027933     -0.922383
H       0.309413      1.385309      1.076824
H      -1.840430     -0.376632     -0.310139
H      -1.204725     -0.823751      1.318406
