15
Extracted from Q-Chem output
C       1.954492      0.229556     -0.115754
C       0.455594      0.345095     -0.225430
O       0.095692      1.081516     -1.359996
C      -1.607652     -0.061858      1.100239
C      -1.788126     -0.685572     -0.263744
C      -0.353675     -0.878428      0.083148
C      -0.310480      0.504652      1.053881
H       2.392969      1.216584      0.037244
H       2.244073     -0.416944      0.713795
H       2.363705     -0.182963     -1.038655
H      -0.482152      1.798118     -1.094052
H      -2.452368     -1.542594     -0.255394
H      -1.901472     -0.078258     -1.157882
H       0.086694     -1.789009      0.462179
H       0.227322      0.713160      1.975917
