8
Extracted from Q-Chem output
C      -0.663380     -0.689241      0.098537
N       0.565067     -1.054283      0.542574
N       1.674731     -0.714790      0.505378
N       1.571176      0.760274     -0.855368
N       0.456186      1.068678     -0.757707
C      -0.698772      0.670304     -0.168795
H      -1.423844     -1.449285      0.039420
H      -1.467592      1.408900     -0.018095
