14
Extracted from Q-Chem output
C      -1.820013     -0.202349      0.077074
C      -0.347496     -0.421181     -0.116147
N       0.627482     -1.344904      0.993938
C       0.750375      0.004410      0.941853
C       1.690471      0.577673     -0.150384
C       0.544738      0.328342     -1.113244
O       0.256337      0.750632     -2.189568
H      -2.388562     -0.713711     -0.699353
H      -2.062294      0.860155      0.029229
H      -2.125032     -0.597362      1.045228
H      -0.020470     -1.534584     -0.254483
H       0.364049      0.643969      1.737772
H       2.582263     -0.028536     -0.298381
H       1.942656      1.637520     -0.101450
