11
Extracted from Q-Chem output
C       1.475484      0.994269      0.285382
C       1.337303     -0.208355     -0.112686
C       0.274276     -1.000638     -0.453613
N      -0.830107     -1.240731      0.436057
C      -1.362376     -0.109250     -0.304115
C      -0.914576      1.126560      0.059096
N      -0.000662      1.775087      0.457914
H       2.221661      1.642781      0.702761
H       0.239301     -1.569784     -1.373837
H      -0.603420     -1.001581      1.394194
H      -2.117951     -0.298370     -1.050553
