14
Extracted from Q-Chem output
C      -2.010497      0.008791     -0.353527
C      -0.312900     -0.006915     -0.057867
C       0.657501     -0.802799     -0.374073
C       2.028987     -0.275291      0.141861
N       2.964697     -1.085595     -0.245316
O       1.990394      0.777420      0.810634
C      -0.820564      1.083893      0.559347
H      -2.782900      0.329444      0.346433
H      -2.181905      0.408870     -1.344966
H      -2.032175     -1.080070     -0.314676
H       0.598292     -1.727335     -0.927760
H       3.851848     -0.727568      0.106937
H      -1.053281      1.066929      1.618750
H      -0.897497      2.030227      0.034224
