14
Extracted from Q-Chem output
C       2.198958      0.688430     -0.311774
O       0.809473      0.505293     -0.295769
C       0.389286     -0.343767      0.738551
C      -1.095300     -0.519223      0.706522
C      -1.886144      0.049052     -0.191935
O      -3.234995     -0.077848     -0.268748
H       2.432084      1.360848     -1.136035
H       2.727402     -0.261842     -0.465049
H       2.556650      1.136500      0.624812
H       0.698964      0.069927      1.712201
H       0.885168     -1.323783      0.644547
H      -1.513355     -1.159287      1.479748
H      -3.543764     -0.653064      0.435860
H      -1.500171      0.690529     -0.972880
