14
smiles: [C-:2]#[O+:3].[C:1]([C:6]([C:4](=[C:5]([H:11])[H:12])[H:10])([H:13])[H:14])([H:7])([H:8])[H:9]
C       -1.15611200      -0.66354400       1.02315100
C       -1.25487200       2.52386100      -1.38085200
O       -1.23171400       3.04093200      -0.38377000
C        0.66863800      -0.39838700      -0.68686600
C        1.75804300       0.34777600      -0.78397000
C        0.22315100      -1.11854200       0.54903400
H       -1.91076000      -0.82498300       0.24978300
H       -1.46831400      -1.21418900       1.91224000
H       -1.15206800       0.40081800       1.26602400
H        0.02249600      -0.50208100      -1.55710100
H        2.42898200       0.48189500       0.05862400
H        2.02289200       0.85032900      -1.70635000
H        0.19410200      -2.19432900       0.34478900
H        0.96135000      -0.96911600       1.34144400
