17
Extracted from Q-Chem output
O       2.664619      0.209931      0.918747
C       1.752306     -0.365429     -0.017034
C       0.363102     -0.240448      0.503469
C      -0.313398      1.039246      0.517286
C      -1.656248      0.939970     -0.247529
O      -2.270742     -0.279731     -0.046085
C      -1.381319     -1.028657     -0.836647
H       3.547080      0.170426      0.544071
H       1.825518      0.157002     -0.981388
H       1.995133     -1.421615     -0.185548
H       0.043813     -0.980084      1.227797
H      -0.614318      1.274609      1.547077
H       0.272869      1.872001      0.128353
H      -0.855443      0.049307     -1.250184
H      -2.361952      1.770132     -0.134996
H      -1.853191     -1.227593     -1.803419
H      -1.073076     -1.977229     -0.399747
