15
Extracted from Q-Chem output
O       2.270483     -0.393369     -0.399262
C       1.392503     -0.110500      0.577649
C      -0.110759      1.341304      0.029830
C      -0.895169      0.076351      0.167739
O      -2.129900      0.080492      0.810270
C      -0.561645     -0.994030     -0.819315
C       0.147330     -0.936169      0.513648
H       3.094082      0.066447     -0.216819
H       1.097753      1.054682      0.730555
H      -0.357273      2.094293      0.778236
H       0.018465      1.759440     -0.965807
H      -2.795013      0.370624      0.182301
H      -1.302202     -1.777784     -0.914882
H      -0.008999     -0.760673     -1.721697
H       0.025730     -1.755846      1.210206
