17
Extracted from Q-Chem output
C       1.748237      0.482908     -0.103880
C       0.676174     -0.587797     -0.284018
C      -0.050428     -0.888661      1.030163
C      -1.201502      0.104232      1.084735
O      -1.848036      0.379124      2.058420
C      -1.397484      0.692580     -0.306248
C      -0.465789     -0.116003     -1.209361
H       2.528434      0.144864      0.580860
H       1.330641      1.405598      0.309202
H       2.219979      0.730562     -1.056912
H       1.144236     -1.487309     -0.688985
H       0.564526     -0.824721      1.928138
H      -0.499556     -1.887659      1.012954
H      -0.995951     -0.985498     -1.606478
H      -2.450562      0.660852     -0.585686
H      -1.115243      1.748052     -0.257826
H      -0.094769      0.453233     -2.062849
