17
smiles: [C:1]([O:3][H:12])([H:8])([H:9])[H:10].[C:2]([C:4]([C:5]([C:6](=[O:7])[H:17])([H:15])[H:16])([H:13])[H:14])[H:11]
C       -2.36925400       0.46931100      -0.34357400
C       -0.15615600      -0.11327100      -0.12312700
O       -1.10262000       0.17125300      -0.89055000
C        0.66711600      -1.10725300       0.62659100
C        1.93189000      -0.27295700       0.87226800
C        1.92849000       0.56995200      -0.36013200
O        0.67636300       0.69368100      -0.74310500
H       -2.35425400       0.48562100       0.75226200
H       -2.76215200       1.42623400      -0.70561800
H       -3.04929300      -0.31985000      -0.66238800
H       -1.11968100      -0.23212400      -0.59333100
H       -0.48481100       0.85292700      -0.62511700
H        0.20870400      -1.50184800       1.53033200
H        0.91019500      -1.95447000      -0.04342000
H        2.83305200      -0.86131900       1.02744600
H        1.77791700       0.37650300       1.75557000
H        2.57794800       1.38523900      -0.63700600
