13
Extracted from Q-Chem output
C       1.996394     -0.050665     -0.073062
C       0.521779      0.145689      0.062240
C      -0.177399      1.285298      0.444230
C      -1.601417      0.795417      0.322859
C      -1.604336     -0.588652      0.010291
N      -0.329739     -0.923516     -0.144443
H       2.371382     -0.840430      0.584677
H       2.289168     -0.297955     -1.097976
H       2.488275      0.879716      0.201750
H      -1.223802      1.362788     -0.629900
H      -2.463755      1.325095      0.703771
H      -2.403337     -1.304881     -0.104145
H      -0.030381     -1.843946     -0.432203
