14
smiles: [C:1]([C@:2]12[C:3]([H:11])=[C:4]([H:12])[C@@:5]1([H:14])[O:6]2)([H:7])([H:8])[H:9].[H:10][H:13]
C       -2.08935200       0.34655600       0.01271100
C       -0.61358200       0.17478100       0.07929900
C        0.39751200       0.75014700       1.08542800
C        1.34703100       0.84880200       0.15577300
C        0.43380100       0.27014200      -0.92260500
O       -0.01670400      -1.01348500      -0.45900100
H       -2.35492500       1.39953200       0.11922600
H       -2.57796100      -0.20963600       0.81565700
H       -2.46862100      -0.02190800      -0.94021300
H        2.80855400      -2.66618800      -0.12456700
H        0.37693500       0.87619100       2.15968600
H        2.40031700       1.09169900       0.17565300
H        2.14437000      -2.32985200      -0.11231000
H        0.36971300       0.47773200      -1.98178200
