11
Extracted from Q-Chem output
C      -1.740462     -0.251478      0.171406
C      -0.506326      0.198772     -0.047502
O      -0.192880      1.452357     -0.440582
N       0.633983     -0.578599      0.105247
C       1.933275     -0.197640     -0.105117
O       2.861627     -0.948801      0.057518
H      -1.002386      1.957704     -0.539578
H      -2.596814      0.394373      0.040657
H      -1.912289     -1.270665      0.482850
H       0.504441     -1.531380      0.405819
H       2.041199      0.844244     -0.431480
