18
Extracted from Q-Chem output
C       2.496661     -0.294800     -0.178017
N       1.549892      0.804027     -0.167025
C       0.206493      0.530423      0.053768
O       0.023313     -0.252064      1.161401
C      -0.801777      1.049320     -0.652584
C      -0.567227     -1.517875      0.929782
C      -2.245718      1.007008     -0.257548
H       3.505252      0.106977     -0.273013
H       2.326921     -1.008936     -0.995635
H       2.440784     -0.830697      0.768292
H       1.681039      1.461108     -0.918508
H      -0.542491      1.600245     -1.550376
H      -0.642014     -2.005208      1.900747
H       0.058152     -2.127241      0.269203
H      -1.563489     -1.434345      0.490174
H      -2.830083      0.313545     -0.871258
H      -2.363426      0.715245      0.786911
H      -2.703825      1.992290     -0.372500
