13
Extracted from Q-Chem output
C      -0.806845     -0.121163      1.533599
C      -0.378005     -0.024151     -1.544273
O       0.164666     -0.249853     -2.717221
C       0.699808     -0.130051     -0.516334
C       0.349031      0.550263      0.805035
H      -0.557340     -1.153066      1.795615
H      -1.698342     -0.142885      0.905011
H      -1.052631      0.406551      2.456823
H      -0.530226     -0.208118     -3.382000
H       0.813795     -1.214198     -0.357326
H       1.658848      0.218493     -0.920238
H       1.236976      0.559740      1.443122
H       0.102235      1.597415      0.607040
