13
Extracted from Q-Chem output
C      -1.079343     -0.170636      0.793973
C      -0.107749     -0.595635     -0.767822
O      -0.482351      0.302628     -1.737534
C       1.344648     -0.343827     -0.452139
C       0.723220      0.509346      0.559172
H      -0.991999     -1.069401      1.397687
H      -2.007836     -0.238773      0.225732
H      -1.230590      0.693835      1.456489
H      -1.401068      0.125145     -1.954749
H       1.880741     -1.215144     -0.091264
H       1.860173      0.172042     -1.254963
H       0.940044      0.321642      1.601925
H       0.568098      1.545099      0.289769
