16
Extracted from Q-Chem output
C      -0.281088      1.303892      0.901063
C      -0.530289     -0.044280      0.275837
C       0.418274     -0.652143     -0.669061
C       1.751489     -0.446079     -0.857822
C       2.489416      0.403449      0.003642
C      -1.347186     -1.032494      1.049705
N      -1.917949     -0.384341     -0.108645
H       0.611232      1.291163      1.521210
H      -1.147629      1.592028      1.502140
H      -0.118834      2.059874      0.131452
H      -0.062300     -1.420535     -1.273446
H       2.209045     -1.054459     -1.641831
H       3.561559      0.191473     -0.156507
H      -1.165002     -2.095840      0.946633
H      -1.645185     -0.713365      2.042746
H      -2.531499      0.373360      0.166085
