14
Extracted from Q-Chem output
O      -0.024226      1.814349     -0.046677
C      -0.539647      0.747448      0.616894
C      -0.527322     -0.482112     -0.243972
C       0.865624     -0.958992     -0.545520
C       1.369326     -1.093336     -1.760863
C      -0.987075      0.791481      1.868130
H      -0.023392      2.580692      0.531927
H      -1.388525     -0.095269      2.335563
H      -1.051886     -0.263480     -1.178015
H      -1.081527     -1.267262      0.274663
H       1.476829     -1.204657      0.319732
H       0.789618     -0.845890     -2.643965
H       2.379623     -1.450714     -1.918194
H      -0.968829      1.705576      2.450642
