14
Extracted from Q-Chem output
O      -1.519377      1.854927      0.228968
C      -0.880283      0.716845      0.374374
C      -0.989933     -0.508125     -0.467817
C       0.433593     -0.907523      0.034283
C       1.499724     -0.550058     -0.904274
C       0.388915      0.374295      0.902112
H      -0.962083      2.592973      0.506658
H      -0.514424      0.106512      1.703663
H      -0.918043     -0.144631     -1.501740
H      -1.832345     -1.184315     -0.350886
H       0.433767     -1.839787      0.616919
H       1.363592     -0.820597     -1.946510
H       2.508845     -0.690689     -0.528120
H       1.163992      0.978197      1.355622
