14
Extracted from Q-Chem output
C       2.920104     -0.585375     -0.237869
C       1.796852     -0.425085      0.179526
C       0.518569     -0.307497      0.737222
C      -0.552781      1.267726     -0.240951
C      -1.594496      0.174021     -0.087362
C      -0.640273     -1.011002      0.040965
H       3.923870     -0.724280     -0.562585
H       0.179133      0.976604      0.729555
H      -0.813247      2.282923      0.063895
H      -0.019613      1.261575     -1.187866
H      -2.146068      0.320062      0.843002
H      -2.311146      0.109465     -0.905798
H      -0.370065     -1.385062     -0.952929
H      -1.015742     -1.849137      0.630860
