10
Extracted from Q-Chem output
O       0.368236     -1.166809     -0.665416
C       1.092609     -0.180940     -0.029415
N       0.403062      0.261413      1.214500
C       0.332221      1.076128     -0.011175
N      -1.056356      0.688311     -0.313396
C      -0.897545     -0.750258     -0.372801
N      -1.002521     -0.160677      0.949318
H       2.163224     -0.301640     -0.005413
H       0.668553      2.096912     -0.110682
H      -1.701489     -1.366561     -0.745026
