10
Extracted from Q-Chem output
O       0.388508     -1.191948     -0.650330
C       1.100638     -0.318235      0.046578
N       0.367671      0.313992      1.126865
C       0.204769      1.147021     -0.016772
N      -0.941070      0.740456     -0.603888
C      -0.949166     -0.659300     -0.282044
N      -0.916953     -0.456917      1.090380
H       2.178664     -0.336418     -0.015714
H       0.584610      2.155494     -0.035676
H      -1.749007     -1.256847     -0.696689
