10
Extracted from Q-Chem output
O       2.164671     -0.545476     -0.070488
C       0.944137     -0.403014      0.073441
C       0.105570      0.909917      0.453761
N      -0.968039      0.336886     -0.368657
C      -0.281443     -0.731402     -0.745314
H      -0.177135      1.075093      1.493945
H       0.540419      1.802052      0.010804
H      -1.960295      0.380076     -0.189355
H       0.347941     -1.193372      0.782827
H      -0.637347     -1.562172     -1.347508
