17
Extracted from Q-Chem output
C       2.440105     -0.113671      0.631648
O       1.060503     -0.308991      0.844744
C       0.406110     -0.777963     -0.277649
C      -1.044356     -0.421930     -0.431453
C      -1.748500      0.431075      0.640208
C      -2.197651      1.371427     -0.388745
C       0.029543      0.161829     -1.361195
H       2.858733      0.254681      1.566553
H       2.620137      0.622370     -0.159584
H       2.938091     -1.052304      0.360362
H       0.662884     -1.800329     -0.552030
H      -1.667306     -1.193392     -0.862647
H      -2.482704     -0.202320      1.144719
H      -1.023029      0.828847      1.347693
H      -3.071063      0.896381     -0.879742
H       0.270533      1.204016     -1.209160
H       0.039216     -0.173223     -2.389196
