14
Extracted from Q-Chem output
C      -1.679143      0.142406     -0.878409
C       0.121194      0.260734      2.359487
O      -1.022790     -0.843637     -0.109434
C       0.352154     -0.899604     -0.335563
C       1.103128      0.316016      0.169389
N       2.092535      0.800897     -0.412304
O       0.589424      0.928811      1.339204
H      -1.346356      1.152750     -0.613178
H      -2.742201      0.054523     -0.664932
H      -1.508606     -0.018441     -1.949073
H       0.242534     -0.824832      2.132343
H       0.600539     -0.988720     -1.398311
H       0.724133     -1.793078      0.169836
H       2.473184      1.599873      0.091460
