7
Extracted from Q-Chem output
O      -1.884878     -1.178350     -0.181627
C      -1.555372     -0.063822     -0.045301
C       0.710489     -0.478107      0.250782
O      -0.201511      0.379569     -0.120123
C       2.006728      0.118280      0.046159
N       3.111853      0.432321     -0.046807
H      -2.181469      0.820875      0.108594
