14
Extracted from Q-Chem output
C       1.788585      0.851605      0.016355
C       1.213625     -0.350953      0.719217
O       0.019446     -0.005646      1.413664
C      -0.535454     -0.585407      0.266398
C      -1.276127      0.345505     -0.657430
O      -2.349630      0.960064      0.018721
H       1.112233      1.694363     -0.149301
H       2.288451      0.562259     -0.909125
H       2.574499      1.187080      0.700582
H       0.495884     -1.104556     -0.184531
H      -1.067748     -1.505556      0.515498
H      -1.713559     -0.233707     -1.472396
H      -0.604305      1.088689     -1.095676
H      -1.990753      1.407054      0.790331
