14
Extracted from Q-Chem output
C      -1.182067      0.818294     -0.386962
C      -1.262890     -0.353705      0.472984
C       0.142750      0.102342     -0.007611
C       0.972082     -0.906302     -0.824374
O       2.026602     -1.185168     -0.042431
C       0.976653      0.708912      0.925917
H      -1.410559      0.701672     -1.438794
H      -1.365530      1.803615      0.019478
H      -1.474073     -0.218265      1.524937
H      -1.559585     -1.307036      0.055659
H       0.317503     -1.765269     -1.076872
H       1.247319     -0.435952     -1.793097
H       0.575664      1.331286      1.723855
H       2.043568      0.577774      0.796737
