13
smiles: [C:2](=[C:3]([C:4]([C:5]#[N:6])([H:12])[H:13])[H:11])([H:8])[H:9].[O:1]([H:7])[H:10]
O        1.39150600      -1.56933900       1.40566300
C        1.01142800       1.08386100      -0.80977700
C       -0.02294300       0.26202900      -0.79370600
C       -1.01178600       0.18442300       0.33949700
C       -2.38944600       0.38285500      -0.11407800
N       -3.46549500       0.53246900      -0.48117600
H        1.99992600      -2.30879000       1.43293700
H        1.70591800       1.09369800      -1.64015200
H        1.20229500       1.77910600       0.00075500
H        1.65537000      -1.04998900       0.64516300
H       -0.19730100      -0.41718700      -1.62230000
H       -0.78612300       0.93212000       1.10188900
H       -0.96326000      -0.79685300       0.82052400
