12
Extracted from Q-Chem output
C      -1.652210     -0.152382     -0.076568
N      -0.207848     -0.082706     -0.031914
C       0.674648     -1.132518     -0.261137
C       1.985242     -0.730578     -0.124834
N       1.792300      0.617756      0.198268
C       0.512526      0.990564      0.250947
H      -1.974614     -0.521588     -1.049809
H      -2.017662     -0.826428      0.698223
H      -2.075606      0.837370      0.083630
H       0.272722     -2.102571     -0.510334
H       2.552761      1.250060      0.373893
H       0.117903      1.966850      0.479252
