16
Extracted from Q-Chem output
C      -1.258730     -0.200348      1.217081
C      -1.389202      0.172837     -0.250837
N      -1.418435      1.454220     -0.663081
C      -0.027850      0.453728     -1.074100
C       1.241156      0.425481     -0.252516
C       1.717378     -0.953297      0.117389
O       1.210429     -1.974831     -0.255562
H      -0.674580      0.532931      1.771887
H      -2.264484     -0.204893      1.641779
H      -0.842773     -1.200555      1.346922
H      -1.975712     -0.584658     -0.799259
H      -0.110657      1.433967     -1.597725
H      -0.076803     -0.272884     -1.882951
H       1.145593      1.027132      0.653733
H       2.062362      0.888458     -0.812994
H       2.619468     -0.974407      0.762944
