14
Extracted from Q-Chem output
C      -1.625601     -1.102976      0.716791
C      -1.640365      0.222090      0.016142
C      -0.426215      0.908514     -0.395038
O      -1.107731      1.348053      0.734078
C       1.849049      0.848543     -0.767551
O       0.799553      0.291549     -0.146734
N       2.925618      0.175652     -0.404370
H      -0.671666     -1.269461      1.213500
H      -2.422283     -1.145065      1.461273
H      -1.792277     -1.905857     -0.004328
H      -2.552347      0.455501     -0.530466
H      -0.368642      1.589878     -1.237876
H       3.813228      0.456095     -0.776314
H       2.899047     -0.602271      0.244136
