12
Extracted from Q-Chem output
C      -1.391356     -0.398796     -0.052513
C       0.063079     -0.176948      0.142737
N       0.620802      0.998583      0.370596
O       0.025544      2.104893     -0.257049
C       1.164481     -1.073008      0.168970
H      -1.685093     -1.317036      0.459304
H      -1.608291     -0.539796     -1.113422
H      -1.981485      0.439999      0.314503
H       0.229283      2.838044      0.329710
H       1.787951     -1.028432     -0.720304
H       1.067615     -2.069227      0.592658
H       1.697522      0.339706      0.454608
