7
Extracted from Q-Chem output
C      -0.648467     -0.004303      0.004108
C       0.849804      0.031871     -0.005309
O       1.507252      1.035578     -0.005499
H      -0.993407     -0.556589      0.882185
H      -1.059059      1.003502      0.010834
H      -1.004699     -0.549343     -0.873974
H       1.348576     -0.960717     -0.012345
