12
Extracted from Q-Chem output
C      -1.389586      0.809760      0.394461
C      -0.652041     -0.498161     -0.911156
C       0.074272     -1.608765     -0.644477
O       1.340577     -1.259670     -0.134929
C       1.301126      0.027857     -0.009313
O       2.350184      0.621822      0.531573
N       0.202774      0.589949     -0.472496
H      -0.918277      1.383024      1.190671
H      -1.944296      1.424231     -0.296716
H      -1.979403     -0.002509      0.801513
H      -0.073098     -2.667092     -0.765766
H       2.235241      1.571761      0.427293
