15
Extracted from Q-Chem output
C      -2.008053     -0.452901      0.173547
N      -0.846246      0.328694     -0.160090
C       0.278999     -0.082707     -0.860567
C       1.311529      0.888575     -0.757519
C       1.546325     -0.799004      0.129143
C       0.673724      1.758361      0.231482
N      -0.552962      1.434461      0.538050
H      -2.273038     -1.081934     -0.676321
H      -2.834959      0.220240      0.389458
H      -1.834042     -1.091338      1.046354
H       0.139786     -0.812249     -1.647901
H       2.307955     -0.261350      0.681095
H       2.026971     -1.506643     -0.535476
H       0.887312     -1.291975      0.847763
H       1.093741      2.658516      0.658169
