13
smiles: [C:1](=[O:2])([H:7])[H:8].[C:3](=[C:4](/[C:6](=[N:5]\[H:12])[H:13])[H:11])([H:9])[H:10]
C       -1.85934700      -1.62101800      -0.47136900
O       -0.83902000      -2.24423000      -0.49155800
C        1.86357000      -0.01275500       0.58378700
C        1.25928800       1.16553400       0.65303400
N       -0.62005100       0.92942900      -0.91970400
C       -0.09280800       1.43152900       0.11506800
H       -2.27908500      -1.21487900       0.46894800
H       -2.43885100      -1.41604100      -1.39197000
H        2.85352100      -0.16496100       0.99479800
H        1.38192000      -0.87378400       0.13220500
H        1.74405600       1.99427900       1.16106400
H        0.03656200       0.30513700      -1.39092600
H       -0.69375200       2.14735500       0.68143300
