16
Extracted from Q-Chem output
C       1.818828      0.535399      0.523037
N       1.213173     -0.332119     -0.458574
C       0.003990     -1.063080     -0.275246
C      -1.058277     -0.181518      0.571989
C      -0.934881      0.884375     -0.546643
C       0.091103      0.034216     -1.283660
C      -2.108712     -1.145939      0.434807
H       1.112772      1.155419      1.086910
H       2.519024      1.195949      0.010416
H       2.381949     -0.074927      1.229863
H       0.004169     -2.139126     -0.376532
H      -0.689171      0.080077      1.569028
H      -0.605451      1.877155     -0.235507
H      -1.872769      0.959259     -1.092968
H       0.197199     -0.050477     -2.357255
H      -2.061909     -1.788642      1.335371
