13
smiles: [H:7][H:9].[O:1]=[N:2][C:3]1=[C:4]([H:8])[C:5]([H:10])([H:11])[C:6]1([H:12])[H:13]
O        2.47042100      -0.01094500      -0.48128600
N        1.77730000       0.93909000      -0.22103600
C        0.39354900       0.62428900      -0.12527600
C       -0.32024000      -0.49922900      -0.26302200
C       -1.62200500       0.20681800       0.02341600
C       -0.78197600       1.51377400       0.18064400
H        2.16288500      -2.62296100       0.20988200
H       -0.06483100      -1.52491200      -0.49248700
H        2.02717500      -3.33471000       0.38154000
H       -2.33422400       0.21437300      -0.80372100
H       -2.13552000      -0.12347600       0.92808800
H       -0.99473200       2.28641500      -0.55853700
H       -0.79699600       1.95311800       1.17836700
