13
Extracted from Q-Chem output
O       2.497338     -0.458360     -0.405115
N       1.878671      0.609027     -0.120826
C       0.563460      0.484457     -0.289716
C      -0.165793     -0.685017     -0.480940
C      -1.410975     -0.058874      0.113981
C      -0.600777      1.271092      0.262504
H       1.684840     -1.490666      0.224479
H      -0.068226     -1.494053     -1.190320
H       0.882361     -1.683616      0.460677
H      -2.263455     -0.025028     -0.566854
H      -1.737541     -0.492517      1.058792
H      -0.963715      2.065993     -0.388494
H      -0.484113      1.652790      1.275875
