13
Extracted from Q-Chem output
N       1.392372     -1.346341     -0.900412
C       0.867752     -0.272990     -0.363707
O       1.537272      0.820454     -0.076936
C       0.337084      1.358955      0.643078
C      -0.406136      0.070378      0.204732
C      -1.754690     -0.136708     -0.411935
N      -1.364722     -0.791836      0.768017
H       2.370834     -1.412238     -1.119001
H       0.573024      1.427910      1.702566
H       0.052626      2.317619      0.214587
H      -1.831986     -0.673204     -1.370716
H      -2.386493      0.763875     -0.389519
H       0.805736     -2.163898     -0.945785
