19
Extracted from Q-Chem output
C       2.353200      0.390389     -0.756740
C       1.149947     -0.532943     -0.611019
C       0.325879     -0.223132      0.622614
C      -0.517231      1.075797      0.706194
C      -1.722080      0.165532      0.938650
C      -2.098931     -0.554275     -0.344716
C      -0.889234     -1.098277      1.023442
H       2.919528      0.169905     -1.663190
H       3.031186      0.286723      0.093680
H       2.042866      1.437255     -0.805879
H       0.522918     -0.454940     -1.505527
H       1.477281     -1.575736     -0.556024
H       0.975008     -0.305507      1.503009
H      -0.557833      1.708691     -0.184506
H      -0.262370      1.701062      1.561102
H      -2.548013      0.400875      1.602483
H      -3.111063     -0.943376     -0.319150
H      -1.833813     -0.038167     -1.262295
H      -1.479841     -1.547929     -0.308635
