17
Extracted from Q-Chem output
C       1.142661     -1.091635     -0.984698
C       1.175759     -0.453839      1.294759
O       0.399524      0.535879      1.233299
C      -0.750772      0.259345      0.376425
C      -1.735911      1.384814      0.479584
C      -0.108205      0.133599     -1.038643
O      -0.971911     -0.144275     -1.919766
H       2.133719     -1.138433     -0.509820
H       0.647407     -2.058302     -0.889537
H       1.392150     -0.927684     -2.031605
H       0.779617     -1.463938      1.321501
H       2.198344     -0.252142      1.598169
H      -1.173054     -0.704959      0.675114
H      -2.521181      1.188573     -0.249062
H      -2.174362      1.457557      1.475581
H      -1.259538      2.332038      0.220725
H       0.527840      1.050751     -1.178659
