9
Extracted from Q-Chem output
N      -0.679943      0.683214     -0.016520
C       0.690259      0.722537      0.015510
C       1.084526     -0.581552      0.025959
N      -0.005299     -1.413089      0.001184
C      -1.043237     -0.623012     -0.023900
H      -1.298436      1.472914     -0.031835
H       1.239473      1.648233      0.027375
H       2.089028     -0.972670      0.049962
H      -2.076372     -0.936576     -0.047735
