9
Extracted from Q-Chem output
N      -0.562294      0.624705     -0.065873
C       0.804506      0.542992      0.172154
C       1.150818     -0.827621      0.443762
N      -0.067029     -1.519707      0.226041
C      -1.002708     -0.653234     -0.010983
H      -1.103219      1.437897     -0.298842
H       1.393352      1.426092      0.375683
H       1.431693     -0.086095     -0.694492
H      -2.047601     -0.891440     -0.171478
