15
Extracted from Q-Chem output
C      -1.924702      0.174731      0.094301
C      -0.564011     -0.321713     -0.296655
C       0.548506      0.587811     -0.677487
C       0.229450      3.132365     -0.732381
N       0.382698      1.979082     -0.691556
N       0.544444     -0.066554      0.600717
C       1.523997     -1.118143      0.791368
H      -1.857092      1.149360      0.575783
H      -2.567045      0.262821     -0.783747
H      -2.392898     -0.520885      0.792654
H      -0.544131     -1.277701     -0.819743
H       1.255241      0.252308     -1.430088
H       1.703544     -1.710201     -0.117594
H       1.173483     -1.790061      1.575311
H       2.467498     -0.677435      1.114686
