11
Extracted from Q-Chem output
O      -0.130101      1.838156     -1.304981
C       0.218632      0.828746     -0.792628
O      -1.617076     -0.851544     -0.079365
C      -1.396100     -0.195155      1.179457
C      -0.409775     -0.221965      0.114270
C       1.485081     -0.020625     -0.730430
O       0.790721     -0.954326      0.120396
H      -1.249153     -0.865079      2.020444
H      -1.996055      0.692770      1.350635
H       2.334846      0.451057     -0.233141
H       1.792450     -0.468776     -1.677591
