15
Extracted from Q-Chem output
C      -1.459340      1.146436     -0.298706
C      -0.213189      0.346525     -0.334687
C       0.149966     -0.422018      1.319539
O       1.340218     -1.006606      1.355586
C       1.134731      0.348742     -0.099434
C       0.629022     -0.544965     -1.171792
O       0.659549     -1.920182     -1.065332
H      -1.390562      1.951948      0.433921
H      -1.650234      1.589562     -1.277545
H      -2.316472      0.517229     -0.045882
H      -0.746715     -1.067909      1.323645
H      -0.010837      0.454145      1.966474
H       1.982481      0.921282      0.242414
H       0.872957     -0.202244     -2.175847
H       1.024381     -2.091563     -0.176078
