13
Extracted from Q-Chem output
N       2.106549     -0.512008      1.655684
C       1.582680     -0.231729      0.674714
C       0.960838      0.221640     -0.556247
C      -0.222150     -0.524564     -1.212959
C      -0.395745     -1.809904     -0.634400
C      -1.030583      0.950052      0.708328
N      -0.326878      0.806998     -0.556094
H       1.678378      0.606774     -1.272555
H      -0.221544     -0.428428     -2.293560
H      -0.573155     -1.709049      0.449129
H      -0.855091      0.142580      1.424862
H      -2.096379      1.017820      0.495803
H      -0.704657      1.884364      1.164679
