14
smiles: [C:1]([C:2](=[O:3])[H:10])([H:7])([H:8])[H:9].[C:4](=[C:5]=[C:6]([H:11])[H:14])([H:12])[H:13]
C        1.92477900       1.19693200       0.15412100
C        1.43851900      -0.11960600       0.67999600
O        1.22780500      -0.35550100       1.83741300
C       -1.88079000      -1.35341700       0.91787500
C       -1.80646800      -0.53084800      -0.08518600
C       -1.73267600       0.29024800      -1.08955800
H        1.20617000       1.58433100      -0.57297100
H        2.06052100       1.91074200       0.96422100
H        2.86765900       1.05067900      -0.37933600
H        1.27267100      -0.90490100      -0.08793600
H       -1.31617200      -0.02706700      -2.03819500
H       -1.06956200      -1.44024600       1.63087200
H       -2.75632300      -1.97451100       1.06533700
H       -2.08731000       1.31051600      -1.00370300
