14
Extracted from Q-Chem output
C       2.272285      0.647881      0.015714
C       1.186418     -0.377625      0.238949
O      -0.065495      0.262457      0.122931
C      -1.135972     -0.619012      0.339112
C      -2.404964      0.091902      0.214140
C      -3.457001      0.652662      0.118620
H       3.255523      0.181928      0.099322
H       2.181601      1.090600     -0.976820
H       2.200278      1.445774      0.755480
H       1.280871     -0.832868      1.235934
H       1.261559     -1.189776     -0.499187
H      -1.073034     -1.067822      1.341183
H      -1.112466     -1.444763     -0.386827
H      -4.389602      1.158661      0.034839
