14
smiles: [H:8][H:9].[O:1]=[C:2]1[C@@:3]2([H:10])[C@@:4]3([H:11])[C:5]([H:12])([H:13])[C@:6]1([H:14])[N:7]23
O        2.09988100       0.90389800       0.25942700
C        0.91646400       0.76403300       0.22096900
C       -0.24573500       1.62478600      -0.12476600
C       -1.35023800       0.68614000      -0.48425200
C       -0.85195600      -0.74412200      -0.45152400
C       -0.06585100      -0.25874500       0.77150100
N       -1.05984700       0.92155800       0.93672000
H        2.51586700      -1.76390600       0.07690700
H        2.35163900      -2.48015300      -0.04349000
H       -0.29847800       2.69177300      -0.28624500
H       -2.25291500       1.07026300      -0.94241100
H       -0.29676000      -1.15012200      -1.29809900
H       -1.65828100      -1.42012900      -0.16794400
H        0.18637600      -0.89385800       1.61403600
