14
Extracted from Q-Chem output
O       1.672160     -0.625169     -1.314930
C       1.031537     -0.236506     -0.248054
C       0.447817      1.096950      0.139686
C      -1.023579      0.947060     -0.018723
C      -1.336474     -0.453802     -0.496131
C      -0.195191     -0.840179      0.448368
N      -0.372309      0.480143      1.227668
H       2.252904     -0.614002     -0.051163
H       1.937065     -0.361139      0.834256
H       0.934453      2.056878      0.237542
H      -1.663820      1.819654     -0.029741
H      -1.231076     -0.700484     -1.553077
H      -2.297735     -0.791037     -0.110424
H      -0.157280     -1.795104      0.961770
