12
Extracted from Q-Chem output
C      -1.967529     -0.472509      0.086145
C      -0.524768     -0.121056      0.030480
C      -0.054581      1.315208     -0.077948
N       1.236278      1.121609     -0.096189
C       1.649454     -0.280155     -0.011572
N       0.414605     -0.991135      0.066869
H      -2.471630     -0.096363     -0.806483
H      -2.434502      0.021896      0.940465
H      -2.105655     -1.549313      0.162832
H       2.262330     -0.459147      0.876156
H       1.900010      1.876537     -0.165127
H       2.217515     -0.579524     -0.896698
