12
Extracted from Q-Chem output
C      -1.925619     -0.430320      0.140992
C      -0.459694     -0.244983      0.146430
C       0.321086      1.058787     -0.029902
N       1.205222      0.618748     -1.075459
C       1.533100     -0.181376      0.113450
N       0.454591     -1.130343      0.312103
H      -2.383793      0.130035      0.957960
H      -2.170035     -1.486668      0.242708
H      -2.347951     -0.048672     -0.792168
H       1.284421      0.707055      0.964158
H       1.929896      1.318334     -1.226826
H       2.580909     -0.381043      0.305265
