17
Extracted from Q-Chem output
C      -2.034173     -0.547592      0.228796
C      -0.851897     -0.087682     -0.596635
O      -0.521685      1.271193     -0.222252
C       0.831486      1.471773      0.054347
C       1.476158     -0.042938     -1.090572
C       1.090643     -0.223531      0.779373
C       0.449054     -0.861645     -0.394906
H      -2.859255      0.157867      0.126678
H      -1.779593     -0.622366      1.287987
H      -2.377192     -1.525476     -0.116086
H      -1.108659     -0.087919     -1.659541
H       1.340191      2.091155     -0.676898
H       0.939892      1.964975      1.026185
H       2.491203     -0.417424     -0.900521
H       0.434478      0.075005      1.586573
H       2.030031     -0.624197      1.135501
H       0.423405     -1.942068     -0.483920
