11
Extracted from Q-Chem output
O      -2.482509      0.432879     -0.806754
C      -1.406972      0.458653     -0.061887
N       0.781826      1.189346     -1.217411
C       1.265283      0.357270     -0.422208
O       2.488536      0.331100      0.218872
C       0.525704     -0.870400     -0.294830
N      -0.784483     -0.802186     -0.272030
H      -2.971409      1.245136     -0.639763
H       2.951255      1.115527     -0.098841
H       0.982034     -1.855859     -0.345260
H      -1.348754     -1.597456     -0.546457
