14
Extracted from Q-Chem output
C       1.259842      0.190891     -0.457884
C       0.979087     -0.833885      0.868483
O      -0.266468     -1.425864      0.847235
C      -1.130947     -0.342628      0.744563
C      -0.840065      0.232339     -0.596987
O      -1.274710      1.447663     -0.928031
H       1.304665      1.244999     -0.189201
H       2.305960     -0.162078     -0.382646
H       1.144872      0.076143     -1.552459
H       1.706242     -1.657786      0.861852
H      -0.918168      0.405067      1.530480
H      -2.166321     -0.683677      0.820993
H      -0.888011     -0.452866     -1.435787
H      -1.284456      2.016732     -0.150057
