10
Extracted from Q-Chem output
O      -0.524761     -1.586639     -0.713437
C      -0.081863     -0.426197     -0.159333
C       1.137729     -0.378625      0.400973
O       1.739004      0.668908      0.993192
C      -1.007886      0.692273     -0.229165
O      -2.096666      0.578073     -0.748277
H      -1.411011     -1.397062     -1.051688
H       1.179214      1.448965      0.985853
H       1.762693     -1.263334      0.408368
H      -0.695714      1.660918      0.203766
