10
Extracted from Q-Chem output
O      -0.219613     -1.254239     -1.160784
C       0.104177     -0.243845     -0.314405
C       1.118464     -0.376364      0.678374
O       1.713942      0.726914      0.818596
C      -1.011768      0.635465      0.057656
O      -2.071587      0.535435     -0.521322
H      -1.159143     -1.125353     -1.371965
H       0.977844      0.974195     -0.235015
H       1.382665     -1.245483      1.280072
H      -0.834243      1.370554      0.859042
