13
Extracted from Q-Chem output
O       1.778758     -1.409458     -1.433746
C       1.284890     -0.299062     -1.416526
C       0.188451      0.073987     -0.552134
C      -0.647053     -0.163739      1.498814
C      -0.526032     -0.947429      0.291640
C      -0.223901      1.398686     -0.276738
O       0.155977      2.484246     -0.623699
H       1.659744      0.501796     -2.077348
H      -1.588686      0.049155      1.992666
H       0.253940      0.087197      2.043630
H      -1.451909     -1.355353     -0.109523
H       0.210711     -1.753982      0.406958
H      -1.109340      1.317741      0.488989
