15
Extracted from Q-Chem output
C      -2.074889      0.175702     -0.896762
C      -1.077593     -0.636115     -0.070624
C       0.339273     -0.276761     -0.384461
C       1.276493      0.117657      0.474050
O       1.152857      0.260754      1.822820
C       2.650246      0.470699      0.025259
O       3.023679      0.434445     -1.116097
H      -1.968328      1.243276     -0.697134
H      -3.101654     -0.114239     -0.668375
H      -1.910190      0.019450     -1.964539
H      -1.226833     -1.702275     -0.270986
H      -1.299980     -0.500620      0.993374
H       0.655555     -0.322563     -1.421349
H       0.268395      0.011375      2.099451
H       3.324688      0.778705      0.847694
