15
Extracted from Q-Chem output
C      -2.231821     -0.027842     -0.682921
C      -0.933551     -0.599672     -0.129057
C       0.260883      0.330059     -0.370792
C       1.360004      0.310240      0.500824
O       1.056952      0.743217      1.671620
C       2.791583     -0.037099      0.221973
O       3.269977      0.015378     -0.875388
H      -2.500296      0.903186     -0.180207
H      -3.052813     -0.735702     -0.554947
H      -2.140395      0.185947     -1.750225
H      -0.733019     -1.560601     -0.616056
H      -1.043514     -0.806499      0.938096
H       0.475310      0.494376     -1.424561
H       0.081881      1.072952      0.905169
H       3.370543     -0.328447      1.118796
