13
Extracted from Q-Chem output
O       1.458435      1.870898      0.891757
C       1.823958      0.969395      0.188218
C       0.998969     -0.243487     -0.140181
C      -0.426317     -0.128035      0.331778
C      -1.444693      0.472663     -0.553958
N      -1.291876     -1.229510     -0.095820
H       2.838397      0.983562     -0.261443
H       1.497454     -1.111880      0.308902
H       1.025496     -0.400172     -1.222865
H      -0.518374      0.073425      1.395527
H      -1.645016     -0.784272     -1.102329
H      -2.296813      0.821669      0.038458
H      -2.038794     -1.406471      0.564049
