16
Extracted from Q-Chem output
C      -1.670050      1.069103      0.153139
C      -1.352317     -0.395050      0.437356
C       0.139785     -0.701345      0.553004
C       0.900513     -0.438318     -0.728718
C       3.258399     -0.107999     -0.389998
O       2.267681     -0.903911     -0.586036
H      -1.310247      1.385385     -0.828263
H      -1.211906      1.722551      0.899917
H      -2.746401      1.245684      0.174397
H      -1.792107     -1.026010     -0.342030
H      -1.833014     -0.693423      1.372191
H       0.282879     -1.750210      0.824523
H       0.583315     -0.102698      1.355613
H       0.479903     -0.999597     -1.565303
H       2.841453      0.940021     -0.390811
H       0.940022      0.623837     -0.984582
