17
Extracted from Q-Chem output
C      -2.102620      0.327997     -0.945054
C      -1.354827     -0.733346     -0.686263
C       0.143883     -0.782096     -0.519795
C       0.898898      0.552383     -0.664697
C       1.097609      1.078680      0.767563
C       0.984256     -0.171712      1.597436
C       0.484064     -1.183229      0.903301
H      -3.179574      0.243413     -1.023826
H       0.320931      1.795599      1.055933
H      -1.682086      1.316908     -1.085314
H      -1.851415     -1.692874     -0.553672
H       0.524194     -1.522433     -1.232217
H       0.395464      1.262158     -1.320211
H       1.875807      0.348519     -1.107020
H       2.056563      1.586351      0.891443
H       1.246792     -0.211969      2.647730
H       0.271635     -2.170162      1.296909
