15
smiles: [C:1]([N+:2](=[C:3]([H:10])[H:11])[C:4]([O-:5])=[C:6]([H:13])[H:14])([H:7])([H:8])[H:9].[H:12][H:15]
C       -0.73648900       1.26279800      -0.24168500
N       -0.56191100      -0.10813200       0.20812300
C       -1.53555200      -0.90333300       0.32191600
C        0.89698900      -0.75408600       0.60576500
O        0.77058500      -1.91411600       0.95036400
C        1.88065600       0.15661000       0.45242500
H       -1.78730400       1.45857000      -0.45254800
H       -0.38568300       1.94053100       0.53393100
H       -0.14544100       1.41946300      -1.14157700
H       -2.54617700      -0.58943900       0.08571400
H       -1.28875400      -1.90492600       0.66541500
H        0.35552800      -1.02866800      -2.77086200
H        2.88996100      -0.14907100       0.68339600
H        1.71414800       1.16519100       0.11742600
H        0.86348300      -0.89161100      -2.24401700
