15
Extracted from Q-Chem output
C      -0.787989      1.343193      0.037373
N      -0.577047     -0.055991      0.380092
C      -1.210200     -0.967966     -0.316636
C       0.744211     -0.549168      0.852624
O       0.754961     -1.537363      1.553949
C       1.721525      0.003472      0.010975
H      -1.829897      1.599164      0.226230
H      -0.160227      1.968213      0.666368
H      -0.555809      1.528200     -1.015503
H      -2.061751     -0.679642     -0.920721
H      -1.083635     -2.001859     -0.031551
H       0.095871     -1.095769     -1.556135
H       2.698986     -0.457644      0.027416
H       1.669069      1.028166     -0.324943
H       0.854848     -0.772225     -1.238580
