12
Extracted from Q-Chem output
N      -1.732475     -0.708029      0.675795
C      -0.574778     -0.154826      0.249285
N       0.524155     -0.829839      0.166697
C       1.669090     -0.105282      0.150116
O       2.656657     -0.755143     -0.422400
C       0.380461      1.924647     -0.595770
N      -0.589989      1.210556     -0.005611
H      -2.607849     -0.326968      0.364885
H      -1.707847     -1.691016      0.881224
H       2.347709     -1.613392     -0.762807
H       0.905518      1.265524     -1.299805
H      -1.251018      1.728608      0.558121
