15
Extracted from Q-Chem output
C      -2.338300      0.185682     -0.495723
O      -1.585413      0.253330      0.706619
C      -0.277577     -0.048629      0.630936
O       0.286077      0.471723     -0.489689
C       0.336120     -0.737736      1.587193
C       1.571548      0.028774     -0.857859
O       2.586871      0.582197     -0.089000
H      -2.234052     -0.796166     -0.966420
H      -3.375437      0.337583     -0.204733
H      -2.039680      0.960239     -1.202513
H       1.408822     -0.841587      1.610031
H      -0.257417     -1.139985      2.393192
H       1.641114     -1.054077     -0.733762
H       1.661511      0.304333     -1.911700
H       2.590744      1.533717     -0.216169
