15
Extracted from Q-Chem output
C      -2.566567     -0.118812     -0.517153
O      -1.630168     -0.468577      0.489888
C      -0.422189      0.130962      0.424724
O      -0.219424      0.994085     -0.459059
C       0.558556     -0.331077      1.314330
C       1.931992      0.294910     -0.769161
O       3.033542      0.257940     -0.094206
H      -2.140967     -0.246390     -1.513922
H      -3.413392     -0.788677     -0.380883
H      -2.890664      0.917041     -0.408729
H       1.194373      0.446581      1.720177
H       0.288333     -1.121174      2.004804
H       1.425953     -0.613349     -1.048667
H       1.787706      1.213570     -1.313679
H       3.050939     -0.558709      0.430131
