16
smiles: [C:1]([C@@:2]1([H:10])[C:3]([H:11])([H:12])[C-:4]=[O+:5][C:6]1([H:15])[H:16])([H:7])([H:8])[H:9].[H:13][H:14]
C        2.04402200       0.28995200       0.09488400
C        0.52598600       0.35341700       0.16548600
C       -0.21099000      -0.31408500      -1.00419900
C       -1.47978700      -0.90794900      -0.44968400
O       -1.34934000      -0.92024000       0.83961500
C       -0.07331200      -0.39591100       1.34230600
H        2.41432600       0.81432000      -0.78750400
H        2.50847800       0.74807500       0.97055500
H        2.38694400      -0.74633900       0.03567200
H        0.21355900       1.40022400       0.22055000
H       -0.41997200       0.34082100      -1.85018200
H        0.34608500      -1.17119300      -1.40913600
H       -3.57685500       0.70338400      -1.03739500
H       -3.91021400       1.36900500      -1.05280900
H       -0.30093700       0.21192000       2.21588000
H        0.52440300      -1.25858900       1.64697000
