11
Extracted from Q-Chem output
C      -1.473234     -0.242095      0.077843
N      -0.075782     -0.237859      0.252563
C       0.349332      1.048399     -0.118095
N       1.650127      0.945784     -0.546651
N       2.036075     -0.276934     -0.285843
C       1.013154     -0.993678      0.222918
H      -1.755410     -0.354194     -0.961424
H      -0.882792      1.224839     -0.513579
H      -2.055352     -0.822703      0.785891
H       0.194957      1.800138      0.658889
H       1.063278     -2.043965      0.458108
