12
Extracted from Q-Chem output
O       0.994905      2.098163      0.029830
C       0.607176      0.912350      0.346667
C      -0.881843      0.483543      0.044343
C      -0.796547     -1.009257     -0.157510
O       0.601555     -1.227557     -0.645379
C       1.305000     -0.232908     -0.302097
H      -1.186421      1.005560     -0.863382
H      -1.546480      0.755845      0.860116
H      -0.865428     -1.581575      0.767769
H      -1.435406     -1.449802     -0.918064
H       2.360615     -0.268852     -0.563039
H       0.775998      0.569917      1.439720
