14
Extracted from Q-Chem output
C       1.666364     -0.391281      0.287059
O       1.364922      0.960797      0.705651
C       0.505548      0.343234     -0.159736
C      -0.936348     -0.179724      1.239225
C      -1.393483     -0.349405     -0.068323
C      -0.017005      0.694468     -1.405968
H       1.589529     -1.141607      1.063679
H       2.510331     -0.474320     -0.390201
H      -1.202231      0.706338      1.796053
H      -0.473353     -0.992220      1.775854
H      -2.147268      0.308911     -0.472434
H      -1.334797     -1.314917     -0.552023
H      -0.471415      1.665960     -1.537343
H       0.367644      0.172425     -2.271645
