17
Extracted from Q-Chem output
C       1.719048      0.714907     -0.700122
C       1.343169     -0.449959      0.159902
C       0.795879     -0.317075      1.420354
O      -1.046274     -0.988434      1.141969
C      -1.226096     -0.716397     -0.181584
C      -1.886324      0.609955     -0.495283
O      -0.373569     -1.208979     -0.963144
H       1.537986      0.509891     -1.753839
H       2.787636      0.917761     -0.579182
H       1.177388      1.618085     -0.415940
H       1.794625     -1.398830     -0.099031
H       0.575080      0.673489      1.801900
H       0.940635     -1.094799      2.155455
H      -2.040099     -1.518678      0.293865
H      -1.177999      1.403903     -0.242589
H      -2.116123      0.672669     -1.557581
H      -2.789841      0.760037      0.093979
