14
Extracted from Q-Chem output
O       0.530272     -1.074670     -1.692744
C       0.350493      0.504213     -0.705351
C      -1.008213      0.254885     -0.389693
C      -1.050215     -0.045263      1.097376
O       0.296160     -0.382625      1.426756
C       1.139354      0.333903      0.557536
H       1.056252     -1.757750     -1.258871
H       0.705132      1.147544     -1.498384
H      -0.555199     -0.866042     -1.135170
H      -1.808203      0.794533     -0.879618
H      -1.672849     -0.898459      1.370172
H      -1.377096      0.821912      1.690733
H       1.351342      1.346261      0.941814
H       2.086024     -0.196041      0.455403
