8
Extracted from Q-Chem output
O      -0.934525      0.569584     -1.462923
C      -0.206960      0.302645     -0.551165
C      -0.467718     -0.723282      0.506820
C       1.085700      1.023888     -0.407459
N       2.088344      1.565207     -0.275234
H      -0.468351     -0.241859      1.487326
H      -1.423972     -1.206656      0.321850
H       0.338839     -1.459638      0.509557
