15
Extracted from Q-Chem output
C      -2.162303     -0.082179     -0.559468
N      -1.009298      0.540916      0.124995
C      -0.563309     -0.176117      1.329480
N       0.657606     -0.460685      1.255253
C       1.137719      0.037167     -0.005440
C       2.574586     -0.188307     -0.329489
C       0.217547      0.652866     -0.781358
H      -2.378277      0.498606     -1.452029
H      -1.873379     -1.090105     -0.848986
H      -3.026525     -0.110500      0.104974
H      -1.256329     -0.400658      2.129847
H       3.224778      0.289216      0.407310
H       2.814133     -1.254449     -0.334748
H       2.796087      0.225542     -1.311960
H      -1.247116      1.503135      0.365932
