13
Extracted from Q-Chem output
C      -1.331964     -1.006070     -0.059523
C      -1.305738      1.335165      0.112969
C      -0.030697      0.820996     -0.189387
N       1.186853      1.269096     -0.456940
C       1.970424      0.184461     -0.240573
C       1.251429     -0.953585      0.088151
N      -0.048367     -0.540337      0.026975
H      -1.859322     -0.839751     -0.982450
H      -1.612036     -1.863910      0.543529
H      -1.671092      2.252940     -0.335141
H      -1.747530      1.052062      1.053936
H       3.044469      0.246947     -0.340860
H       1.547060     -1.977333      0.237662
