12
Extracted from Q-Chem output
C      -1.172879     -0.022011     -0.622278
C       0.013173     -0.309330      1.214259
O       0.954054     -1.089362      0.792788
C       1.379886     -0.098279     -0.233143
C       0.096686      0.756331      0.175120
O      -0.020768      1.997728      0.196448
H      -2.103018      0.260173     -0.132893
H      -1.101868      0.505009     -1.572412
H      -1.123214     -1.099748     -0.788574
H      -0.629167     -0.620091      2.037967
H       1.462957     -0.578727     -1.206247
H       2.308601      0.360634      0.092596
