14
Extracted from Q-Chem output
C       1.755174     -0.268980      0.549864
C       0.558758      0.183614     -0.243896
C      -0.335600     -0.790666     -0.914546
C      -0.828324     -0.055182      0.313571
O      -2.693973      1.284428      0.922083
C      -1.838048      1.001067      0.127933
H       1.564284     -1.230538      1.030906
H       2.005445      0.452751      1.329308
H       2.627333     -0.386678     -0.096294
H       0.683142      1.132184     -0.757321
H      -0.133701     -1.846703     -0.790785
H      -0.775987     -0.523055     -1.867190
H      -0.909543     -0.607437      1.241506
H      -1.757405      1.552428     -0.836922
