14
Extracted from Q-Chem output
O       1.341410     -1.416270     -2.077609
C       1.591293     -0.874406     -1.000453
C       0.997298      0.302900     -0.519766
C      -0.402135      0.665961     -0.942989
N      -0.745798      0.405666      0.492125
C      -1.705916     -0.249012      1.002982
C       0.679036      0.557735      0.931657
H       2.359010     -1.317172     -0.325124
H      -0.621243      1.710212     -1.187181
H      -0.901736     -0.015650     -1.636831
H      -2.568058     -0.489311      0.393230
H      -1.636685     -0.586374      2.029788
H       0.826874      1.573043      1.316496
H       0.975420     -0.177444      1.685899
