14
Extracted from Q-Chem output
O       1.853269      0.138612     -2.263091
C       1.802863      0.206982     -1.050670
C       0.568147      0.202834     -0.292237
C      -0.707376     -0.456029     -0.800084
N      -1.111650     -0.426248      0.648082
C      -1.386431      0.865473      0.841341
C       0.332804     -0.506922      1.038481
H       2.734425      0.348974     -0.460855
H      -1.409545      0.068001     -1.445701
H      -0.563717     -1.482380     -1.158265
H      -2.084306      1.364815      0.178154
H      -1.144524      1.325966      1.792511
H       0.534629     -0.032555      1.998609
H       0.676296     -1.549218      1.058783
