15
Extracted from Q-Chem output
C      -0.673416     -1.673132     -0.675347
C       0.204422     -0.767118      0.186678
C       1.123022      0.205856     -0.645558
C       0.707891      1.616263     -0.218856
C      -0.247160      1.548034      0.705833
C      -0.599170      0.174991      1.021828
C      -1.230801      1.127447      1.651557
H      -1.312062     -1.076228     -1.329146
H      -0.047286     -2.308383     -1.303509
H      -1.310108     -2.312951     -0.063085
H       0.806006     -1.390874      0.852291
H       2.180794      0.003276     -0.445539
H       0.977257      0.033019     -1.718751
H       1.150187      2.510440     -0.635504
H      -1.973962      1.425960      2.374927
