15
Extracted from Q-Chem output
O       1.922087      1.473878     -0.661009
C       0.773315      0.866162     -0.286471
C       0.407902     -1.598774      0.024211
C      -0.850403     -0.848735     -0.279754
C      -1.279720      0.263258      0.670255
C      -0.131313      1.240545      0.618965
C       0.447421     -0.431544     -0.925678
H       1.997130      2.315974     -0.205883
H       0.874303     -1.473923      0.994147
H       0.502762     -2.587809     -0.405720
H      -1.607651     -1.356792     -0.861520
H      -2.213298      0.721498      0.328459
H      -1.464647     -0.115819      1.680349
H      -0.056475      2.112999      1.256315
H       0.674270     -0.584817     -1.972339
