11
Extracted from Q-Chem output
N       1.810536      0.326418      0.071422
C       0.355864      0.177718      0.046596
C      -0.534439      1.138768      0.295447
C      -1.741426      0.326370      0.100995
C      -1.412816     -0.944835     -0.221317
O      -0.052634     -1.091034     -0.269244
H       2.266827     -0.257084      0.773464
H       2.251873      0.155320     -0.832822
H       1.917244      1.312403      0.323518
H      -2.761020      0.675316      0.196911
H      -1.978974     -1.836873     -0.440415
