10
Extracted from Q-Chem output
N       1.980941     -0.082151     -0.386865
C       0.717598     -0.249254     -0.088493
N       0.139219      0.940427      0.012165
C      -1.214427      0.697215      0.146574
C      -1.382100     -0.634244      0.193410
O      -0.134197     -1.256208      0.051112
H       1.387829      1.208129     -0.249462
H       2.679935     -0.788219     -0.234343
H      -1.957743      1.471272      0.233486
H      -2.227636     -1.282260      0.334672
