13
Extracted from Q-Chem output
C       1.584823      0.360427     -0.392369
O       1.258666     -0.340528      0.686142
C      -0.008701     -0.513440      0.989998
C      -1.036981      0.529715      0.692987
O      -1.489180      0.331933     -0.642630
C      -0.741219     -0.714592     -1.144707
O      -1.184595     -1.497524     -1.914573
H       0.467324     -0.446447     -1.126893
H       2.641099      0.301272     -0.618367
H       1.074281      1.304779     -0.562009
H      -0.136355     -1.206703      1.810577
H      -0.651872      1.550156      0.812892
H      -1.884798      0.396429      1.365677
