12
Extracted from Q-Chem output
C      -1.458676     -0.231434     -0.078122
C      -0.329266     -0.172220      0.741086
C       0.811268     -0.989654      0.444378
C       1.534189     -0.133439     -0.325944
N       0.947265      1.117764     -0.391604
N       0.163427      1.127431      0.797126
H      -2.213434      0.547344     -0.014424
H      -0.330964      0.528501     -0.985870
H      -1.818206     -1.188420     -0.440929
H       0.887903     -2.062060      0.511027
H       2.374374     -0.349697     -0.969677
H      -0.548931      1.838751      0.707989
