12
Extracted from Q-Chem output
O       2.139783     -1.473068     -0.247127
C       1.596693     -0.439580     -0.034459
C       0.437980      0.085043      0.540166
C      -0.514850      1.167525      0.234951
N      -0.913114     -0.210065      0.489825
C      -1.595575     -1.036830     -0.396834
O      -2.468811     -0.651893     -1.118770
H       2.377551      0.648474      0.164159
H       1.973204      0.581634      1.035832
H      -0.601152      1.507455     -0.792404
H      -0.782464      1.883232      1.002041
H      -1.271738     -2.086482     -0.322981
