15
Extracted from Q-Chem output
C      -2.165760      0.001753      0.370960
C      -0.487726      0.691446     -0.549289
O      -0.678554      0.673110      0.992473
C       0.787055     -0.040076     -0.806855
C       2.019150      0.080598      0.020229
N       1.114554     -1.059969      0.192812
H      -2.772866      0.697593     -0.189632
H      -2.094309     -0.955444     -0.127482
H      -2.547428     -0.107345      1.397025
H      -0.393404      1.751635     -0.799534
H      -0.174362     -0.131306      1.246440
H       0.948802     -0.294079     -1.850615
H       2.046012      0.768179      0.858111
H       2.977787     -0.094291     -0.454890
H       1.482836     -1.914077     -0.200528
