16
smiles: [C:1]([C@@:2]1([H:10])[C:3]([H:11])=[C:4]([H:14])[C@:5]1([O:6][H:16])[H:15])([H:7])([H:8])[H:9].[H:12][H:13]
C        1.18801700      -1.65669500      -0.21294700
C        0.69296400      -0.63715300       0.79436300
C        1.38103800       0.71179500       0.80693900
C        0.31772200       1.39258600       0.38725900
C       -0.58265100       0.18738600       0.37164700
O       -1.16001000      -0.08573300      -0.88134900
H        0.52166000      -2.52224300      -0.25702500
H        1.24230800      -1.22180900      -1.21144300
H        2.18104500      -2.01915600       0.06139400
H        0.59919800      -1.09877300       1.78383700
H        2.38298700       1.00744700       1.09604200
H       -3.14795400       2.40081200      -1.72021900
H       -2.65831700       1.85790900      -1.57924100
H        0.12431900       2.43637400       0.17453000
H       -1.35103500       0.20105200       1.15506200
H       -1.74978700      -0.83688500      -0.79551000
