11
Extracted from Q-Chem output
O       0.963209     -0.335407      1.407964
C       1.147556     -0.654994      0.158159
C       1.368011      0.558310     -0.492469
C       0.243693      0.982198      0.341248
N      -0.969368      0.261563      0.096075
C      -0.846457     -1.050885     -0.343822
N       0.302019     -1.628851     -0.398216
H       1.472991      0.752483     -1.549895
H       0.048502      1.986734      0.727377
H      -1.810927      0.542659      0.568291
H      -1.748239     -1.547366     -0.684448
