21
smiles: [C:1](/[C:2](=[C:3]1/[C:5]([H:16])([H:17])[C@:6]1([C:7]([H:19])([H:20])[H:21])[H:18])[H:12])([H:8])([H:9])[H:10].[C:4]([H:11])([H:13])([H:14])[H:15]
C        1.80745000      -1.46592500       0.83166500
C        1.04994700      -1.29717500      -0.44940300
C       -0.12799900      -0.72023100      -0.54191300
C        1.16713800       2.80499500      -0.44988700
C       -1.26165100      -0.31697200      -1.37381200
C       -1.25396900      -0.08165000       0.13956400
C       -2.17036900      -0.88265400       1.03197500
H        2.78163900      -0.97245600       0.77959400
H        1.25594300      -1.04381400       1.67228500
H        1.99637300      -2.52234500       1.04044300
H        1.26157900       1.74084600      -0.66082100
H        1.51433200      -1.68087100      -1.35471100
H        2.01347600       3.33636700      -0.88248400
H        1.15260500       2.96133200       0.62774300
H        0.24185300       3.18130800      -0.88343600
H       -1.15649100       0.54426400      -2.02398900
H       -1.92481900      -1.08828000      -1.75236300
H       -1.11033800       0.95337500       0.43884300
H       -1.77978400      -0.93495200       2.05047800
H       -2.26786600      -1.90538700       0.66204300
H       -3.16718600      -0.43799200       1.07420600
