14
Extracted from Q-Chem output
C       1.230075     -1.176861      0.128234
C       0.415307      0.080817      0.031835
C       1.108176      1.394545     -0.018253
O       0.233718      0.574667     -1.342328
C      -0.925492     -0.020758      0.735139
O      -0.967716     -0.415165      1.880932
N      -2.010913      0.380810      0.037066
H       2.199397     -1.029432     -0.350613
H       1.397029     -1.394191      1.182563
H       0.709817     -2.028357     -0.316406
H       0.344754      2.157363      0.202770
H       0.988846      0.286935     -1.866338
H      -2.895945      0.404838      0.510660
H      -1.934691      0.716081     -0.904760
