14
Extracted from Q-Chem output
C       1.224911     -1.244683      0.149035
C       0.391697     -0.010607     -0.041186
C       1.035684      1.316962     -0.200738
O       0.186301      0.379312     -1.419810
C      -0.920459     -0.028314      0.727621
O      -0.939148     -0.404543      1.879155
N      -2.006957      0.425809      0.065437
H       2.166498     -1.141624     -0.389071
H       1.429377     -1.376824      1.210555
H       0.692854     -2.127231     -0.210788
H       0.326201      2.117852      0.036773
H       1.144946      0.892040     -1.546658
H      -2.882280      0.460678      0.555740
H      -1.957264      0.672468     -0.905562
