14
Extracted from Q-Chem output
C       1.322653      0.546056      0.301449
N       1.617910     -0.331149     -0.899159
C       0.236511     -0.347601     -0.728439
N      -0.646512      0.555118     -1.227062
N      -1.357079      0.670290     -0.016825
C      -1.523568     -0.640575      0.563762
C      -0.459599     -1.318387      0.146097
H      -0.290556      0.971566      0.620768
H       1.795958      0.151659      1.193817
H       1.511158      1.592844      0.081172
H       1.855979      0.262382     -1.685570
H      -2.164180      1.279056     -0.062623
H      -2.283517     -0.832830      1.303586
H      -0.106230     -2.291868      0.443934
