12
Extracted from Q-Chem output
C       0.933392     -0.689225     -0.010743
C       0.505616     -0.356996      1.396857
C      -0.217150      0.700009      1.035675
O      -1.531665      0.686835     -2.243510
C      -1.151106      0.136396     -1.247937
C       0.056749      0.533026     -0.448803
H       0.611609     -1.658159     -0.401353
H       1.993974     -0.556737     -0.228724
H       0.723597     -0.819231      2.351404
H      -0.810167      1.427169      1.575341
H      -1.700149     -0.740005     -0.835980
H       0.583000      1.346368     -0.949596
