12
Extracted from Q-Chem output
C       1.082837     -0.654338     -0.026125
C      -0.107082     -0.502605      0.918664
C      -0.250836      0.891535      0.637316
O      -1.920969      0.824581     -0.358452
C      -0.993561     -0.056889     -0.631328
C       0.401467      0.561607     -0.674464
H       1.111714     -1.556294     -0.643762
H       2.060255     -0.464388      0.416353
H      -0.452834     -1.080050      1.764986
H      -0.501435      1.789385      1.187438
H      -1.176624     -1.002693     -1.169427
H       0.744766      1.259597     -1.428568
