14
Extracted from Q-Chem output
C      -1.168443     -0.880850     -0.435911
C      -1.405272      0.487520      0.125328
C      -0.130101      1.294855      0.186125
C       1.085101      0.765448      0.094797
C       1.345289     -0.715807      0.061057
O       0.178540     -1.377428      0.535498
H      -0.439804     -2.048023      0.006325
H      -0.628312     -0.735743     -1.383814
H      -2.107387      0.985949     -0.554073
H      -1.896187      0.462558      1.102928
H      -0.221867      2.371903      0.291014
H       1.962724      1.402704      0.094965
H       2.154742     -0.971626      0.749954
H       1.624183     -1.073717     -0.935806
