21
smiles: [C:1]([C:2]([C:3]([H:12])([H:13])[H:14])([C:4]([C:5](=[C:6]([H:18])[H:19])[O:7][H:21])([H:15])[H:16])[H:11])([H:8])([H:9])[H:10].[H:17][H:20]
C       -1.04552200      -0.59855200      -0.97324400
C       -1.09015000      -0.27408700       0.51595900
C       -2.40190700       0.40871400       0.88914800
C        0.09582700       0.60508300       0.93731700
C        1.43374200      -0.02860500       0.72237000
C        2.38484000       0.44336400      -0.07803100
O        1.56251600      -1.16782300       1.45707200
H       -1.88321000      -1.23862800      -1.25790800
H       -0.12150500      -1.11094500      -1.24670200
H       -1.10534600       0.31662500      -1.57047600
H       -1.02061500      -1.21268000       1.07437500
H       -3.25855300      -0.21267400       0.61993900
H       -2.50648600       1.36350500       0.36499400
H       -2.45747500       0.60884200       1.96164200
H        0.00137400       0.84076500       2.00245000
H        0.06508600       1.55123600       0.39125600
H        1.68815000      -0.04405700      -2.89852800
H        3.34099100      -0.05605400      -0.18828200
H        2.22321000       1.35015500      -0.64149700
H        1.67292800      -0.05956600      -3.64286400
H        2.42379300      -1.55822300       1.29040300
