21
Extracted from Q-Chem output
C      -1.476108     -0.796467     -1.093645
C      -1.092182     -0.309922      0.299790
C      -2.244503      0.465065      0.935242
C       0.161891      0.567587      0.314055
C       1.484510     -0.093230      0.036869
C       2.659463      0.728736      0.022970
O       1.532207     -1.388968      0.385483
H      -2.394020     -1.387133     -1.048594
H      -0.695574     -1.413408     -1.538381
H      -1.655320      0.046827     -1.767141
H      -0.889021     -1.185980      0.922771
H      -3.150710     -0.142547      0.968564
H      -2.473624      1.367000      0.359663
H      -2.008384      0.771008      1.957008
H       0.290157      0.982557      1.322183
H       0.052646      1.417408     -0.362938
H       1.246809     -0.329372     -1.566187
H       3.623033      0.234274     -0.013142
H       2.595412      1.716034      0.456818
H       1.992426      0.345038     -1.222695
H       2.454046     -1.633746      0.512855
