16
Extracted from Q-Chem output
N       3.024544      0.944567     -0.302743
C       1.700535      0.709086      0.161467
C       2.406172      1.143595      1.135985
C      -1.660001     -1.574282     -0.643484
C      -1.762722     -0.083090     -0.352699
C      -0.577641      0.463352      0.408821
O       0.594443      0.329689     -0.415907
H       3.543154      0.065648     -0.300729
H      -0.784754     -1.794919     -1.255375
H       2.634669      1.774316      1.969716
H      -1.578330     -2.149898      0.281729
H      -2.541859     -1.928447     -1.178802
H      -1.868499      0.479825     -1.283766
H      -2.655353      0.125930      0.243865
H      -0.409034     -0.088452      1.339491
H      -0.707283      1.522177      0.648486
