16
Extracted from Q-Chem output
N       2.702925      0.896525      0.287883
C       1.533751      0.503193     -0.028784
C       1.585072     -0.918879     -0.212769
C      -0.966595     -1.369890      0.217955
C      -1.493169     -0.091890     -0.405149
C      -0.762006      1.160910      0.038868
O       0.562493      1.320548     -0.479530
H       2.898845      1.835803     -0.054416
H       0.045662     -1.605241     -0.201729
H       1.928324     -1.409475      0.704773
H      -0.915546     -1.314026      1.306179
H      -1.564855     -2.238990     -0.059923
H      -1.456630     -0.159139     -1.495497
H      -2.544241      0.043443     -0.131705
H      -0.718437      1.212845      1.133257
H      -1.287063      2.046308     -0.317174
