9
Extracted from Q-Chem output
C      -1.906740      0.279655     -0.181664
C      -0.502605     -0.011411      0.045074
C       0.670095     -0.238530      0.225537
C       1.970181     -0.654957      0.597976
O       2.877653     -0.031094     -0.121399
H      -2.175007      1.197611      0.345443
H      -2.545813     -0.523230      0.188198
H      -2.107177      0.434891     -1.242805
H       3.740736     -0.346675      0.165468
