12
Extracted from Q-Chem output
C       2.977944     -0.541723      0.511289
C       1.811250     -0.296989      0.615061
C       0.385357     -0.001107      0.711424
C      -0.293323      0.014055     -0.635299
C      -1.660992     -0.044506     -0.758917
C      -2.895335     -0.055278     -0.350676
H       4.016397     -0.759738      0.425944
H       0.249749      0.963131      1.211819
H      -0.116829     -0.741421      1.342623
H      -1.381805      0.933540     -1.349058
H       0.324304      0.155521     -1.514149
H      -3.438539     -0.988534     -0.213900
