12
Extracted from Q-Chem output
C      -1.540717     -0.658663     -0.774654
N      -0.687656      0.465034      1.449497
C       0.187687      0.157949      0.590641
O      -0.154748     -0.418619     -0.571695
C       1.674206      0.346526      0.662099
H      -1.618124     -1.128158     -1.752803
H      -2.100876      0.276927     -0.751992
H      -1.935240     -1.317577     -0.000181
H      -0.259006      0.887829      2.263813
H       2.009259      0.958659     -0.176051
H       2.173098     -0.620221      0.583176
H       1.964473      0.824412      1.595488
