17
Extracted from Q-Chem output
C       2.621394      0.040884      0.110985
O       1.530525     -0.850985      0.068750
C       0.482298     -0.507471      0.901343
C      -1.037219      0.006280     -0.916843
C      -2.465930     -0.133485     -1.149146
C      -0.594708      0.601468      0.302791
O      -1.401980      0.998589      1.211080
H       2.321644      1.058553     -0.167850
H       3.359150     -0.317368     -0.604528
H       3.069484      0.067669      1.109654
H       0.801844     -0.008309      1.818309
H      -0.092907     -1.397371      1.146020
H      -0.291526     -0.369572     -1.610796
H      -2.932117      0.852642     -1.017727
H      -2.746087     -0.596493     -2.091019
H      -2.871559     -0.689142     -0.289548
H       0.181994      1.337052     -0.085436
