13
Extracted from Q-Chem output
C      -1.970951     -0.345927     -0.095875
O      -1.235800      0.692976     -0.070059
C       0.129181      0.496151     -0.191236
C       1.130392      1.427188     -0.327829
N       2.293614      0.744238     -0.267063
C       1.942809     -0.531239     -0.082520
N       0.620897     -0.754863     -0.043002
H      -2.999553     -0.187518      0.209047
H      -1.367924     -1.251244      1.275077
H      -1.675780     -1.198879     -0.696423
H       1.068058      2.496006     -0.456401
H       2.660134     -1.333471      0.009091
H      -0.577372     -1.284316      1.003837
