12
Extracted from Q-Chem output
O       0.853241      2.257767      0.287177
C       0.664186      1.144331      0.146454
C      -1.331286      0.435500     -0.012124
C      -1.240425     -0.909401     -0.167088
O       0.905768     -1.456609     -0.151929
C       1.651760     -0.469835     -0.010458
H      -1.509167      1.075154     -0.869472
H      -1.577817      0.858712      0.955418
H      -1.322582     -1.579221      0.675801
H      -1.253985     -1.366673     -1.145075
H       2.219738     -0.075901     -0.874407
H       2.158351     -0.292895      0.957086
