14
Extracted from Q-Chem output
C      -2.323600      0.638792     -0.114053
C      -1.074680     -0.164825     -0.038984
N       0.093019      0.368131     -0.255330
C       1.342206     -0.180521     -0.232020
N       1.444541     -1.546949      0.073919
C       2.414846      0.676083     -0.514908
N       3.308068      1.376627     -0.747398
H      -2.116478      1.683537     -0.356524
H      -2.864503      0.619584      0.835941
H      -3.003138      0.248796     -0.876834
H       1.819004     -2.109295     -0.676866
H      -1.079771     -1.218622      0.200419
H       0.096601      1.357195     -0.480494
H       1.952250     -1.740062      0.925487
