13
smiles: [N:4]1=[C:6]([H:12])[C:5]1([H:10])[H:11].[O:1]([C:2](=[C:3]([H:8])[H:9])[H:7])[H:13]
O       -0.76405600       1.93455700       0.09098000
C       -1.51638400       1.51143600       1.13291800
C       -1.49471100       0.31008100       1.69166200
N        0.90541700      -0.17657300      -1.00827500
C        1.31611000      -1.63527900      -0.85821400
C        1.59466100      -0.68462600      -1.91022700
H       -2.17290400       2.30182500       1.47771500
H       -2.14916900       0.09141400       2.52235500
H       -0.83572300      -0.47768400       1.34335000
H        0.52975100      -2.37380400      -0.97684300
H        2.06052200      -1.85254900      -0.09903800
H        2.03982300      -0.40405800      -2.85430000
H       -0.19297400       1.21936300      -0.20214200
