14
Extracted from Q-Chem output
C      -0.316618      1.390833      0.505331
C       0.118751     -0.074959      0.495687
C      -0.622795     -0.896293     -0.571802
C      -3.166682     -0.920578     -0.118000
N      -2.023351     -0.917145     -0.332298
C       1.558183     -0.205718      0.263482
C       2.731315     -0.309189      0.048556
H      -0.098144      1.862329     -0.454598
H      -1.386899      1.469522      0.697854
H       0.215957      1.938990      1.281635
H      -0.108812     -0.519818      1.469371
H      -0.445859     -0.470038     -1.561255
H      -0.257505     -1.923535     -0.576128
H       3.776310     -0.401180     -0.132809
