12
Extracted from Q-Chem output
C      -1.521463      0.889938     -0.339842
C      -0.773137     -0.350104      0.063240
N      -0.252268     -1.280936     -0.961614
C       0.647242     -0.481418     -0.199255
C       1.887275     -0.207401      0.002563
N       3.049119      0.175839      0.117198
H      -1.051073      1.364433     -1.203062
H      -2.557540      0.649611     -0.588403
H      -1.530116      1.611644      0.478431
H      -1.168483     -0.875100      0.928328
H      -0.373644     -0.887824     -1.891916
H       3.606848     -0.388424      0.755502
