12
Extracted from Q-Chem output
C      -1.386692      0.793679     -0.257695
C      -0.438268     -0.290092      0.166119
N       0.157669     -1.220315     -0.850933
C       0.953905     -0.236723     -0.248137
C       2.013621      0.660683     -0.690795
N       2.556738     -0.115753      0.184997
H      -1.019503      1.307795     -1.146744
H      -2.372765      0.375352     -0.469750
H      -1.498483      1.531307      0.538344
H      -0.697291     -0.817584      1.078349
H      -0.074791     -0.967660     -1.808009
H       1.759805     -0.839637      0.680655
