12
smiles: [C:2](=[C:3]([C:4]#[C:5][H:12])[C:6]#[N:7])([H:9])[H:10].[O:1]([H:8])[H:11]
O       -1.83350900      -1.89755900      -1.49416100
C       -0.87788500       0.22824400       0.84135000
C        0.33840700       0.48489700       0.35899000
C        1.24728800       1.41057900       0.96694500
C        2.01323300       2.18220300       1.46696300
C        0.79632200      -0.18233100      -0.83445300
N        1.15500200      -0.71648900      -1.78476000
H       -1.02034400      -1.70829800      -1.96399000
H       -1.22989400       0.72389800       1.73581400
H       -1.53211500      -0.47751500       0.34767700
H       -1.90631800      -2.85275800      -1.48570000
H        2.69434200       2.86904600       1.91211900
