14
smiles: [C:1](=[O:2])([H:7])[H:8].[C:3](=[C:4]=[C:5]([C:6]([H:12])([H:13])[H:14])[H:9])([H:10])[H:11]
C       -2.07517900       0.81319300      -0.42851200
O       -2.88183800       0.02438200      -0.82480800
C       -0.10439900      -1.92982200      -1.23145500
C        0.40255500      -1.08263700      -0.38440400
C        0.91075000      -0.23323600       0.45959100
C        1.61787700       1.03487000       0.07436100
H       -1.37660400       1.33148800      -1.11311300
H       -1.98287100       1.06774500       0.64487000
H        0.81933200      -0.45611800       1.51974600
H        0.48362300      -2.75275700      -1.62159800
H       -1.13080200      -1.83917800      -1.56850300
H        2.64636000       1.03053800       0.44298000
H        1.64029300       1.15910500      -1.00765000
H        1.11987600       1.90319100       0.51185900
