16
smiles: [N:1]1([H:8])[C:2](=[O:3])[C:4]([H:10])([H:11])[C:5]([H:12])([H:13])[C:6]1([H:14])[H:15].[O:7]([H:9])[H:16]
N       -0.05766400       0.65321100      -0.18164200
C        0.48324300      -0.20778100       0.72509300
O        1.15555000       0.10016500       1.68103900
C        0.09735500      -1.61278600       0.28467800
C       -0.98796800      -1.39567800      -0.76952400
C       -0.70369300       0.01476400      -1.30876800
O        1.39235900       2.78661700       1.09673400
H        0.19194100       1.62637200      -0.15954300
H        1.47322000       1.93401300       1.52612800
H        0.99361800      -2.07917200      -0.13290400
H       -0.21447200      -2.20757900       1.14083900
H       -0.98489900      -2.14430900      -1.56040800
H       -1.97202800      -1.41086300      -0.29801500
H       -0.04410800      -0.01689000      -2.18389500
H       -1.61607000       0.54048900      -1.59467600
H        1.17286100       3.40385900       1.79576200
