13
smiles: [C:5]([H:12])[H:13].[N:1](=[C:2]1/[C:3]([H:8])([H:9])[C:4]([H:10])([H:11])[O:6]1)\[H:7]
N        1.91180000       0.56830700       0.56756600
C        0.84654500      -0.03048700       0.31962500
C        0.27198100      -1.38158500       0.66313500
C       -0.92472900      -0.89343000      -0.15905900
C       -0.88969600       1.61860600      -0.84208000
O       -0.24838200       0.36808600      -0.40773100
H        1.92799100       1.49321300       0.14402600
H        0.82636700      -2.22215500       0.25173700
H        0.09471700      -1.53648700       1.72513900
H       -1.85415400      -0.73470800       0.38712300
H       -1.11597800      -1.42055800      -1.09333400
H       -0.59247500       2.20326500       0.05336400
H       -0.22418600       2.03833300      -1.62500000
