17
smiles: [C:1]([C:2][H:11])([H:8])([H:9])[H:10].[O:3]1[C@@:4]2([H:12])[C:5]([H:13])([H:14])[C:6]([H:15])([H:16])[C@@:7]12[H:17]
C        2.49837300       0.57656200      -0.40737000
C        1.93174000      -0.63873700       0.14377000
O        0.27466100       0.09217700       0.39880100
C       -0.70730400      -0.91865700       0.57265300
C       -2.03197600      -0.21439200       0.85426300
C       -1.87185000       0.52610000      -0.50903100
C       -0.55753600      -0.22417700      -0.70729500
H        2.28981800       0.76670800      -1.46030700
H        2.54137600       1.49499200       0.18761600
H        3.52813600       0.13296200      -0.37867700
H        2.02789000      -0.55894100       1.24452400
H       -0.36354800      -1.89201400       0.89718100
H       -2.04215100       0.39751400       1.75608700
H       -2.88576000      -0.89156900       0.85982700
H       -2.64012200       0.24327700      -1.22813600
H       -1.77884100       1.61160300      -0.47764000
H       -0.06946400      -0.52592900      -1.62470600
