16
Extracted from Q-Chem output
C       2.354509      0.203808     -0.917750
C       1.489522     -0.192079      0.277800
C       0.058650      0.216637      0.103956
C      -0.973851     -0.613058      0.087368
C      -2.409879     -0.214637     -0.092043
O      -2.640178      1.175097     -0.102581
H       2.004996     -0.285561     -1.828839
H       2.318475      1.282458     -1.087520
H       3.398003     -0.074182     -0.759148
H       1.545881     -1.272075      0.439203
H       1.892235      0.279091      1.180955
H      -0.122958      1.278924     -0.049405
H      -2.340830      1.534577      0.735464
H      -0.805857     -1.681189      0.215569
H      -3.015947     -0.706894      0.681813
H      -2.777124     -0.586795     -1.052818
