16
Extracted from Q-Chem output
C       2.137889     -0.131264     -0.404649
C       1.024632      0.584142      0.349538
C      -0.294906      0.503200     -0.380083
C      -1.052462     -0.834164     -0.381134
C      -2.205085     -0.010238      0.200356
O      -1.369280      1.147810      0.329759
H       1.903079     -1.188899     -0.549856
H       2.294589      0.310518     -1.391713
H       3.082395     -0.075468      0.137643
H       0.898143      0.154426      1.347912
H       1.275113      1.639478      0.490998
H      -0.194131      0.936172     -1.384612
H      -0.637244     -1.567198      0.310980
H      -1.222483     -1.302162     -1.348542
H      -2.607025     -0.334058      1.163273
H      -3.033225      0.167706     -0.493054
