11
smiles: [C:1]([N:4]([H:10])[H:11])([H:7])([H:8])[H:9].[N:2]#[C:3][C:5]#[N:6]
C        1.31852000       0.80378800       0.08210800
N        0.26240500      -2.46501300      -0.12575900
C       -0.75909600      -1.96601200      -0.27987500
N       -0.11548000       0.89467900       0.31783000
C       -1.99339400      -1.36325800      -0.46614300
N       -3.01486200      -0.86413100      -0.62018100
H        1.72296000      -0.04531700       0.63569300
H        1.49896000       0.60940100      -0.97654300
H        1.89454600       1.69558400       0.36386900
H       -0.51746400       1.66346500      -0.20019300
H       -0.30963100       1.06263700       1.29527700
