14
Extracted from Q-Chem output
C      -1.957112     -0.416872      0.384620
C      -0.563806     -0.256997     -0.145836
O      -0.347353      1.058242     -0.623864
C       0.910159      1.238842     -1.074044
C       1.637975     -0.048768      0.532442
O       0.366055     -0.395668      0.904563
H      -2.086619     -1.415713      0.799727
H      -2.674376     -0.270994     -0.422245
H      -2.138460      0.323043      1.163201
H      -0.322357     -0.967226     -0.952108
H       1.196344      0.395095     -1.730312
H       1.688257      1.134306     -0.068262
H       2.203236      0.254903      1.413330
H       2.167747     -0.790958     -0.065812
