12
Extracted from Q-Chem output
N      -1.969309      0.303272     -0.444064
C      -0.619298      0.175297     -0.071333
C       0.347288      1.255218     -0.210037
N       1.526887      0.570451     -0.088372
C       1.389980     -0.795802      0.036629
C       0.079069     -1.102071      0.039753
H      -2.210358      1.267639     -0.619794
H      -2.617901     -0.119640      0.201710
H      -0.357357      0.800513      0.956311
H       2.409813      1.044957     -0.039008
H       2.250803     -1.441854      0.129845
H      -0.364010     -2.082947      0.102113
