14
Extracted from Q-Chem output
C       1.431922     -0.414849     -0.717735
C       0.119332     -0.036480     -0.091107
C      -0.629433     -0.831003      0.964997
C      -1.141228      0.258330     -0.804148
O      -1.283746      1.493353     -0.392034
C      -0.216533      1.338559      0.524577
H       1.371816     -1.410318     -1.160677
H       2.214382     -0.436361      0.043699
H       1.725856      0.290832     -1.497679
H      -1.076415     -1.773525      0.647921
H      -0.079906     -0.948205      1.899138
H      -1.923878     -0.273366     -1.327265
H      -0.963706      0.451445      1.370546
H       0.414199      2.216222      0.643397
