11
Extracted from Q-Chem output
C      -0.785884      0.831164      0.207291
C      -0.946604     -0.486740     -0.453097
C       1.417486     -0.419375      0.501952
O       2.599774     -0.460437      0.296227
C       0.417914      0.161247     -0.413749
H      -0.831235      0.869293      1.288787
H      -1.159169      1.715492     -0.289913
H      -1.102563     -1.356054      0.173620
H      -1.433247     -0.532248     -1.417341
H       0.990269     -0.839075      1.441671
H       0.820111      0.571621     -1.330462
