12
Extracted from Q-Chem output
O       0.598091     -0.554680      0.773313
C       0.781609     -0.123925     -0.499686
C       1.878496     -0.324983     -1.213857
C      -0.769744     -0.366435      1.111869
C      -1.187141      0.743678      0.163684
O      -0.315733      0.540213     -0.941063
H       1.956107      0.096577     -2.203099
H       2.687002     -0.906763     -0.801755
H      -0.835515     -0.096907      2.164413
H      -1.324920     -1.291927      0.932595
H      -1.016656      1.736566      0.590211
H      -2.215734      0.664560     -0.183820
