12
Extracted from Q-Chem output
O       1.433001      0.450124      1.043319
C       1.122419      0.380907     -0.148058
C       1.428846     -0.590529     -1.072866
C      -0.917182     -0.501335      0.841091
C      -1.064567      0.759643      0.127539
O       0.054882      1.210815     -0.557081
H       1.108198     -0.490040     -2.099160
H       2.139509     -1.361350     -0.808117
H      -1.817735     -0.867541      1.328457
H      -0.011510     -1.062166      0.978228
H      -1.426722      1.496315      0.871422
H      -1.894457      0.659842     -0.589801
