6
Extracted from Q-Chem output
O      -1.172619      0.655383     -0.935313
N       0.012237      1.103235     -0.499284
C       0.684235      0.029360     -0.256663
N      -0.051663     -1.096549     -0.530691
N      -1.166643     -0.707150     -0.937972
H       1.694452      0.015721      0.114600
