14
Extracted from Q-Chem output
C      -1.784561     -0.615685      0.021628
N      -1.950161      0.340313     -1.119501
C      -0.796849      0.388901     -0.298249
C       1.394133     -1.025459      1.196285
C       1.716531     -0.015115      0.205017
C       0.591230      0.729860     -0.462237
O      -0.289354      1.455110      0.434750
H      -2.373627     -0.450451      0.916575
H      -1.640418     -1.650231     -0.260608
H      -2.595392      1.084612     -0.878825
H       2.349085     -1.276425      1.694227
H       2.109624     -0.790677     -0.504917
H       2.574396      0.644018      0.392591
H       0.864516      1.306083     -1.343806
