14
Extracted from Q-Chem output
C      -1.921885      0.427993      0.849737
C      -0.687540      0.177995      0.047729
C      -0.541552      0.505067     -1.235245
C       2.444484      0.286385      0.038123
C       1.465751     -0.753644      0.185547
O       0.255736     -0.423080      0.817707
H      -2.310069     -0.511442      1.247818
H      -1.686379      1.074002      1.697521
H      -2.690538      0.903333      0.244133
H       0.365193      0.343610     -1.799302
H      -1.361304      0.983654     -1.750280
H       3.278411     -0.191481     -0.510596
H       2.064496     -1.323361      0.939965
H       1.294055     -1.451818     -0.647259
