14
Extracted from Q-Chem output
C       1.551970      0.405167      0.319096
C       0.323178      0.168402     -0.518873
C      -0.179186     -1.224181     -0.650584
C      -1.199251     -0.298437     -0.094840
O      -1.528616     -0.302118      1.241880
C      -0.959559      0.984406      1.183675
H       1.494227     -0.134893      1.262184
H       1.681891      1.460124      0.548748
H       2.423346      0.042463     -0.237888
H       0.255949      0.777639     -1.413198
H       0.232863     -1.943855      0.045558
H      -0.409332     -1.615291     -1.633340
H      -1.976167      0.049850     -0.766894
H      -1.725435      1.615733      0.664881
