16
Extracted from Q-Chem output
C       1.291564      0.290790     -2.069540
N       0.889529      0.367862     -0.691589
C       0.245877     -1.319558      1.206104
C       0.017011     -0.550387     -0.302138
C      -1.076586     -0.126301      0.606620
O      -1.098347     -1.084566      1.568034
C      -1.504171      1.239672      0.940855
H       2.312740      0.664379     -2.184380
H       0.659223      0.901525     -2.731541
H       1.257237     -0.739111     -2.468781
H       0.500420     -2.373420      1.133539
H       0.945103     -0.707156      1.764711
H      -0.273562     -1.381288     -0.970605
H      -2.465702      1.196117      1.456519
H      -0.782758      1.717609      1.612174
H      -1.556655      1.838416      0.032605
