11
Extracted from Q-Chem output
O       2.619168      0.059611     -0.214278
C       1.429085      0.106825     -0.119048
N       0.602355     -0.733099      0.585917
C      -0.777455     -0.547176      0.201087
C      -0.698568      0.887719     -0.324838
O       0.661675      1.054133     -0.718429
H       0.974828     -1.626966      0.850898
H      -1.088285     -1.250043     -0.579325
H      -1.458575     -0.635942      1.047506
H      -0.928039      1.614609      0.457970
H      -1.336190      1.070329     -1.187459
