11
Extracted from Q-Chem output
O       1.625228     -0.920232     -0.957514
C       1.001504     -0.083661     -0.192036
N       0.627443     -0.295535      1.132452
C      -0.615608     -0.404946      0.218949
C      -0.744505      1.044195     -0.184156
O       0.653902      1.162090     -0.608304
H       0.911522     -1.239947      1.375285
H       0.382811     -1.125005     -0.918197
H      -1.398453     -1.057413      0.582150
H      -0.949067      1.754703      0.618653
H      -1.384233      1.216104     -1.048055
