14
Extracted from Q-Chem output
C      -1.515545      0.806757     -0.440929
C      -1.362283     -0.704024     -0.473573
C       0.056520     -1.195394     -0.353846
C       1.112250     -0.439199     -0.231730
C       2.165970      0.320710     -0.119285
O       2.720842      0.762902      1.048805
H      -0.971483      1.274706     -1.263174
H      -2.565674      1.091085     -0.522730
H      -1.122026      1.222078      0.488943
H      -1.947976     -1.161894      0.331087
H      -1.782018     -1.106184     -1.402105
H       2.712296      0.679772     -0.982888
H       0.189856     -2.276314     -0.375877
H       2.207762      0.416129      1.783286
