12
smiles: [H:10][H:12].[O-:1][C:2]1=[C+:6][C:5]([H:11])=[C:4]([H:9])[C:3]1([H:7])[H:8]
O        2.45643700      -0.68075200      -0.67249000
C        1.36337400      -0.26700400      -0.40558000
C        0.08135300      -1.10475600      -0.22167500
C       -0.91694900      -0.09972600      -0.68523400
C       -0.36379800       1.13084400      -0.89552400
C        0.91096100       1.14683100      -0.28527000
H       -0.02158200      -1.32372400       0.84492200
H        0.06254000      -2.05113800      -0.76406300
H       -1.98312500      -0.30212100      -0.72691400
H       -0.57944100       0.56665700       2.80328200
H       -0.92560600       2.00664300      -1.19393600
H       -0.14492000       0.99458800       2.37615100
