12
Extracted from Q-Chem output
O       2.400542     -0.547474      0.179173
C       1.243979     -0.332716     -0.001932
C       0.077682     -1.227478     -0.336280
C      -0.903875     -0.060010     -0.305741
C      -0.453701      1.124518     -0.884291
C       0.509441      0.992183      0.131494
H      -0.067554     -1.924490      0.491555
H       0.103445     -1.774480     -1.279578
H      -1.864252     -0.125919      0.209626
H      -0.344538      0.561154      1.701664
H      -1.042658      2.001802     -1.101905
H       0.330099      1.337826      1.271448
