16
Extracted from Q-Chem output
C       1.972406      0.042382     -0.002888
C       0.506968     -0.256321      0.075306
C      -0.375896      0.589349      1.075529
C      -1.091789      1.121202     -0.168859
N      -0.454411      0.116297     -1.054782
C      -1.038996     -1.215323     -0.748392
C      -0.104456     -1.568649      0.371601
H       2.147921      1.110767     -0.144875
H       2.423956     -0.491076     -0.839910
H       2.460280     -0.281169      0.918089
H       0.221649      1.281712      1.664590
H      -2.183266      1.103667     -0.173138
H      -0.757923      2.120688     -0.447239
H      -0.714617     -1.925792     -1.526749
H      -2.123295     -1.307575     -0.647882
H      -0.985404     -0.008073      1.758774
