17
Extracted from Q-Chem output
C       1.733543      0.166276     -0.111548
C       0.243956     -0.089847      0.072416
C      -0.165015     -1.199960      1.084199
C      -1.147978     -1.795936      0.105610
C      -0.456831     -0.997940     -0.965498
C      -1.470450      1.744679     -0.294821
C      -0.467073      1.198109      0.373395
H       1.912040      0.819086     -0.968960
H       2.158432      0.650299      0.771652
H       2.274243     -0.769249     -0.273454
H      -0.544631     -0.942812      2.075367
H       0.629754     -1.945408      1.226065
H      -1.903259      1.286308     -1.175971
H      -1.044973     -0.613546     -1.799914
H       0.269435     -1.704063     -1.395818
H      -1.905256      2.682724      0.027038
H      -0.085375      1.715537      1.252702
