14
Extracted from Q-Chem output
C      -2.022903      0.169437      0.116890
C      -0.703472     -0.377619      0.640726
C       0.482772      0.343455      0.202436
C       1.846646     -0.217540      0.340614
O       2.354062      0.298986     -0.907253
C       1.210089      0.687003     -1.502322
N       0.552285      0.860449     -2.458498
H      -2.108066      1.234654      0.330695
H      -2.870150     -0.347786      0.568413
H      -2.075128      0.044055     -0.965149
H      -0.630195     -0.246081      1.739282
H      -0.615181     -1.464294      0.497031
H       2.362736      0.212113      1.204782
H       1.978662     -1.306261      0.330939
