15
smiles: [C:5](=[C:6]([H:13])[H:14])([H:11])[H:12].[O-:1][C+:2]([N:3]([C+:4]([H:9])[H:10])[H:8])[N-:7][H:15]
O        1.19104100       0.31311700      -1.70753400
C        1.87573900      -0.03626300      -0.76507800
N        1.15558900      -1.14587900       0.11077500
C        0.01128100      -1.57849400      -0.18167300
C       -2.49399600       0.77296700       0.52494200
C       -1.30719700       1.35477400       0.54324800
N        3.00190800       0.15637700      -0.18520100
H        1.68848600      -1.46771300       0.91139400
H       -0.44278900      -1.14251800      -1.06952600
H       -0.48149100      -2.33627600       0.41674000
H       -3.08423000       0.65716100       1.42683200
H       -2.92508400       0.38833200      -0.39235500
H       -0.87627800       1.73936000       1.46064900
H       -0.71683700       1.47062900      -0.35854900
H        3.52455900       0.86178000      -0.69427700
