15
Extracted from Q-Chem output
O       1.505692     -0.240739     -1.906342
C       1.471716     -0.158360     -0.692191
N       0.857582     -1.251254      0.069924
C      -0.410027     -1.473164     -0.199611
C      -1.437717      0.308436      0.356211
C      -0.548381      1.351486      0.462655
N       1.710861      0.785046      0.194721
H       1.138279     -1.256391      1.040258
H      -0.683469     -1.428891     -1.244837
H      -0.974977     -2.130038      0.447923
H      -1.852871     -0.104675      1.268042
H      -2.070399      0.263330     -0.522040
H      -0.190614      1.690150      1.422615
H      -0.389419      2.018137     -0.373553
H       1.994443      1.634279     -0.283389
