14
Extracted from Q-Chem output
O      -1.751387      0.511090      0.746499
C      -0.908478      0.215578     -0.355796
C       0.350489      1.095142     -0.369488
C       1.399001      0.189274      0.240393
C       1.077465     -1.175722      0.254279
C      -0.335910     -1.214999     -0.291540
H      -1.401603      0.096630      1.537809
H      -1.529260      0.382202     -1.236125
H       0.198109      2.035857      0.159842
H       0.658878      1.334483     -1.391903
H       2.397320      0.546843      0.484069
H       1.112665     -0.361012      1.329433
H      -0.208615     -1.624788     -1.300855
H      -1.000466     -1.908744      0.227131
