14
smiles: [C:1]([H:7])([H:8])([H:9])[H:13].[C:2](#[O+:3])[C@@:4]1([H:10])[C:5]([H:11])([H:12])[C-:6]1[H:14]
C       -1.99272500      -1.03338300       1.18898100
C       -0.11430100       1.22248100      -0.76613000
O       -0.75711700       2.12582700      -0.48810600
C        0.64056700       0.12147500      -0.97442500
C        2.16494600       0.43500300      -0.77795600
C        1.49510200      -0.24846900       0.31479100
H       -2.04868600      -0.03624600       1.62308000
H       -2.48076600      -1.03358000       0.21559000
H       -2.49372900      -1.74302200       1.84568200
H        0.26706700      -0.61920400      -1.67063700
H        2.45350700       1.48889400      -0.77466600
H        2.72652600      -0.15540700      -1.49818300
H       -0.94882500      -1.32012900       1.07210200
H        1.25171600       0.42918900       1.14003000
