14
Extracted from Q-Chem output
C      -1.624538     -0.686748      0.737658
C      -0.468147      1.116351     -0.175690
O      -0.899348      2.061785      0.320193
C       0.425319      0.353838     -0.914795
C       1.923355      0.165974     -0.723532
C       1.031921     -0.406868      0.318037
H      -2.416431     -0.327751      0.075516
H      -1.755830     -1.774299      0.790240
H      -1.792918     -0.268503      1.730929
H      -0.062709     -0.354853     -1.570316
H       2.577156      0.992019     -0.464921
H       2.297083     -0.460099     -1.526592
H      -0.192046     -0.945775      0.534527
H       1.070861      0.251881      1.193906
