13
Extracted from Q-Chem output
O      -0.998653      1.063724      1.185822
C      -1.546925      0.150192      0.600695
C      -0.975685     -0.514776     -0.616951
C       0.333939     -1.216370     -0.277896
O       1.493294     -0.500018     -0.816575
C       1.870590      0.655290     -0.535957
O       1.294933      1.517897      0.215775
H       0.388709      1.263674      0.624212
H      -2.501897     -0.224877      1.005884
H      -1.691700     -1.261048     -0.966985
H      -0.890042      0.241867     -1.414748
H       0.397290     -2.147462     -0.833030
H       2.826560      0.957819     -0.954052
