12
Extracted from Q-Chem output
O       1.845050      0.542409     -0.218932
C       1.133307      0.170151     -1.110682
C       0.290287     -0.921465      2.028160
O       1.099300     -1.297125      2.775627
N      -0.624220     -0.644617      1.301474
C      -0.367859      0.099298     -1.021882
C      -0.915484      0.409047      0.361623
H       1.565586     -0.140521     -2.083574
H      -0.688971     -0.891523     -1.358095
H      -0.765969      0.809503     -1.756303
H      -0.506302      1.355788      0.720024
H      -1.999123      0.510832      0.305954
