16
smiles: [C:1]([O+:2]=[C-:3][C:4]([H:11])([H:12])[H:13])([H:7])([H:8])[H:9].[C:5]([O:6][H:16])([H:10])([H:14])[H:15]
C        1.82936200       1.12229900      -0.40933900
O        1.07186400       0.04068800       0.14591900
C        1.08885800      -1.08266700      -0.50447300
C        0.24390600      -2.06319700       0.24064500
C       -2.02096200       0.80275100      -0.92489900
O       -1.48825700       1.48620700       0.18947600
H        2.55716200       1.43591100       0.33802500
H        2.32078500       0.78116500      -1.31902300
H        1.13944800       1.93920900      -0.61761500
H       -1.24860800       0.53534100      -1.65496600
H        0.87577000      -2.92467900       0.47556200
H       -0.51178900      -2.44041000      -0.45404000
H       -0.22828400      -1.67716800       1.14937000
H       -2.72524400       1.47927200      -1.40783700
H       -2.56223700      -0.10484700      -0.63435800
H       -0.86377700       0.91166800       0.63297200
