16
Extracted from Q-Chem output
N       2.253178      0.475409      0.397192
C       1.006926      0.594542      0.289721
C       0.511283     -1.834593     -0.248247
C       0.002811     -0.535338      0.346711
C      -1.215504      0.090372     -0.331378
C      -1.054441      1.561404      0.023943
O       0.359240      1.775001      0.105197
H       2.712683      1.380970      0.342002
H       0.729486     -1.710790     -1.310928
H       1.431368     -2.144249      0.246134
H      -0.222370     -0.687936      1.409317
H      -0.231210     -2.627157     -0.138311
H      -1.151196     -0.048072     -1.413893
H      -2.164160     -0.322320      0.010481
H      -1.501292      1.798749      0.994432
H      -1.451394      2.247454     -0.723100
