16
Extracted from Q-Chem output
N       2.179416      0.312110      0.783274
C       1.045288      0.144601      0.130588
C       0.894915     -1.212498     -0.587420
C      -0.242651     -0.630902      0.608102
C      -1.461046      0.022672      0.024771
C      -0.902526      1.402797     -0.358620
O       0.452746      1.208018     -0.671845
H       2.154084      1.202571      1.268988
H       0.572867     -1.162415     -1.620258
H       1.650572     -1.917369     -0.267714
H      -0.181038     -1.125186      1.567295
H      -0.095457     -1.744874     -0.100064
H      -1.857231     -0.505247     -0.846576
H      -2.255294      0.074565      0.769695
H      -1.006123      2.098314      0.485271
H      -1.405541      1.833774     -1.224765
