14
Extracted from Q-Chem output
C       0.222474     -1.072097     -0.568361
C      -1.090973     -0.914202      0.142606
C      -1.399223      0.188279      0.817624
O      -0.635519      1.304461      0.893217
C       0.443641      1.348623     -0.032288
C       1.181248      0.023631     -0.109164
H       0.081870     -1.026041     -1.653894
H       0.645147     -2.058065     -0.358482
H       0.042429      1.615404     -1.018301
H      -1.802062     -1.730053      0.148644
H      -2.312900      0.295627      1.389444
H       1.091677      2.156494      0.306383
H       2.033633      0.119972     -0.784869
H       1.574187     -0.216600      0.882464
