14
Extracted from Q-Chem output
C       0.309349     -1.186716     -0.325530
C      -1.110984     -0.751366     -0.149175
C      -1.159523      0.418211      0.674539
O      -0.158359      0.667026      1.588763
C       0.420275      1.190440      0.368933
C       1.199135      0.130434     -0.340548
H       0.455246     -1.782234     -1.227946
H       0.661637     -1.783115      0.518598
H      -0.820470      0.679317     -0.505290
H      -1.989299     -1.175787     -0.604545
H      -2.070273      0.997217      0.812489
H       0.699756      2.236052      0.405665
H       1.423597      0.464930     -1.358457
H       2.146513     -0.090674      0.151907
