15
Extracted from Q-Chem output
C      -0.216954      1.000504     -0.342510
C      -0.862553      0.143036      0.744720
O      -2.112520     -0.308976      0.253975
C       0.151996     -0.984580      0.904252
O       0.691177     -1.174093     -0.391190
C       0.843283      0.094440     -0.976165
O       2.106043      0.645382     -0.694166
H      -0.973442      1.312362     -1.059881
H       2.772316      0.051445     -1.047845
H       0.265918      1.885309      0.069213
H      -0.997088      0.695686      1.681026
H      -2.490418     -0.924398      0.884509
H      -0.292162     -1.926444      1.230224
H       0.936439     -0.695595      1.614544
H       0.722580     -0.048753     -2.053502
