13
Extracted from Q-Chem output
N      -1.926900      0.822060     -0.210407
C      -0.701727      0.548827     -0.020018
C      -0.326026     -0.850369      0.476322
O      -0.710106     -1.834383     -0.448322
N       1.116138     -0.790222      0.576296
C       1.546190      0.399884      0.053850
C       0.547493      1.253244     -0.248791
H      -2.047062      1.758332     -0.588407
H      -0.771134     -1.052251      1.457122
H      -1.575144     -1.567398     -0.781840
H       1.644286     -1.634622      0.443006
H       2.609150      0.577205     -0.046794
H       0.655441      2.256189     -0.629073
