13
Extracted from Q-Chem output
N      -1.969448      0.378229     -0.534081
C      -0.579187      0.372999     -0.041789
C      -0.057470     -0.934074      0.049315
O      -0.802131     -2.004550     -0.093498
N       1.275537     -0.904779      0.147227
C       1.689179      0.430936      0.092035
C       0.609695      1.227287     -0.069949
H      -2.378329      1.292784     -0.376896
H      -1.301406      0.426545      0.852509
H      -1.679024     -1.614801     -0.334806
H       1.870153     -1.708628      0.230215
H       2.729456      0.676296      0.227106
H       0.620638      2.303584     -0.123487
