14
Extracted from Q-Chem output
C      -0.964819     -1.216604      0.066837
C      -0.213183      0.122870      0.137993
N      -0.885038      1.309587      0.075163
O      -1.596342      1.450288      1.271459
C       0.885381      0.300110     -0.865252
C       2.102505      0.022786     -0.231417
O       1.776847     -0.960209     -1.019680
H      -1.421034     -1.335907     -0.916791
H      -0.304403     -2.060463      0.267200
H      -1.749239     -1.193679      0.821960
H      -1.963641      2.333469      1.202083
H       0.739638      0.818630     -1.804519
H       3.064877      0.324243      0.157455
H       0.423867      0.040809      1.102993
