11
Extracted from Q-Chem output
C      -2.016486      0.703244     -0.292258
C      -0.744635      0.360854     -0.401708
O       0.134099      0.503732      0.621716
C       1.400577     -0.052037      0.505431
C       1.769749     -1.009241     -0.494413
N       1.552294     -1.529077      0.626091
H       2.038872     -1.322619     -1.494609
H      -2.418862      1.090120      0.634442
H      -2.671048      0.601914     -1.145144
H      -0.328895     -0.030798     -1.326604
H       2.115918      0.567486      1.031883
