11
Extracted from Q-Chem output
C      -1.363975      0.000194     -0.562594
C      -0.438239      0.918884     -0.128377
O       0.160037      0.724514      1.142533
C       1.104243      0.313644      0.241146
C       1.047506     -1.118154     -0.171598
N       1.938951     -1.717791      0.361044
H       0.041792     -1.347430     -0.713019
H      -1.785018     -0.717311      0.127704
H      -1.859473      0.147077     -1.512910
H      -0.311060      1.900146     -0.572210
H       2.056636      0.835254      0.251181
