14
Extracted from Q-Chem output
C      -1.595981      0.145882      0.136964
C      -0.647645     -1.017625      0.418377
C       0.734857     -0.870791     -0.168523
C       1.482890      0.453959      0.087490
O       1.281167     -1.743082     -0.784220
C       1.133786      1.461208     -0.907167
N       0.848128      2.244629     -1.694484
H      -1.234196      1.086159      0.556207
H      -2.570803     -0.055856      0.580892
H      -1.736692      0.293728     -0.934281
H      -0.513095     -1.129438      1.501234
H      -1.050807     -1.958924      0.045084
H       2.551497      0.249962      0.023470
H       1.250994      0.848577      1.079076
