9
Extracted from Q-Chem output
C       0.000250      0.532882      0.385958
C       1.257483      0.076276     -0.280903
N       1.191494     -1.152274      0.068224
N       0.003492     -0.897903      0.881237
N      -1.188884     -1.155039      0.075504
C      -1.260073      0.073459     -0.272909
H       0.000950      1.371995      1.077949
H       2.039561      0.558231     -0.854019
H      -2.048399      0.553984     -0.839018
