13
Extracted from Q-Chem output
C      -1.371398     -0.498484      0.293804
C      -0.143441      0.199092     -0.212628
C       1.060115      0.362309      0.682475
C       1.130625     -0.538572     -0.503178
C      -0.578916      1.172477     -1.533926
N      -0.421202      1.992752     -0.694520
H      -1.079168     -1.289748      0.987856
H      -2.019181      0.198468      0.825621
H      -1.934424     -0.942166     -0.527613
H       0.972186     -0.080157      1.666573
H       1.602843      1.294340      0.652297
H       1.092546     -1.611139     -0.355024
H       1.709511     -0.216054     -1.356682
