11
Extracted from Q-Chem output
C      -1.969588     -0.117812     -0.120810
C      -0.483985     -0.017822     -0.314477
O       0.088600      0.844435      0.426422
C       1.515931     -0.233955     -0.166009
O       2.343231      0.057986      0.847043
H      -2.201957     -1.112407      0.272590
H      -2.471833     -0.044941     -1.088576
H      -2.336345      0.651635      0.569170
H       1.643177      0.284609     -1.106375
H       1.425224     -1.309545     -0.226996
H       2.438632      1.012961      0.923887
