11
smiles: [H:7][H:8].[O:1]=[C:2]=[N:3][C:4]([C:5]#[C:6][H:11])([H:9])[H:10]
O       -1.63146000       0.94944700      -1.93477200
C       -0.97215500       0.92602600      -0.97729100
N       -0.35323500       1.00409500       0.04928900
C        0.70656400       0.22771000       0.64733600
C        1.11407100      -0.92937000      -0.14872200
C        1.43067900      -1.86922100      -0.81709800
H       -2.11164200       0.73875900       3.07814400
H       -1.96739500       0.90734700       2.36734200
H        1.56505800       0.88305500       0.80750800
H        0.37435000      -0.10532800       1.63259900
H        1.71344700      -2.70588100      -1.41181900
