11
Extracted from Q-Chem output
O       1.528952     -1.077685      0.908955
C       1.032784     -0.592664     -0.172396
C       0.639422      0.797372      0.295185
C      -0.791035      0.866935     -0.034379
C      -0.606285     -0.647769     -0.226559
H       1.499329     -0.753917     -1.156191
H       1.102713      1.154958      1.212411
H      -1.478596      1.220026      0.731156
H      -0.985522      1.372056     -0.981078
H      -0.945017     -1.256236      0.602876
H      -0.928259     -1.017745     -1.196802
