21
smiles: [C:1]([C:2][C:5]1([H:17])[C:6]([H:18])([H:19])[C:7]1([H:20])[H:21])([H:8])([H:9])[H:10].[C:3]([C:4]([H:14])([H:15])[H:16])([H:11])([H:12])[H:13]
C       -0.08467300       2.08667100       0.71548600
C        0.63999000       1.32213600      -0.32004800
C       -2.15140300      -0.83442400      -0.78734000
C       -2.01813400      -1.06601300       0.71186400
C        1.49585300       0.31560300       0.20890700
C        2.75302900      -0.00972000      -0.62031200
C        1.62970300      -0.93468600      -0.69342700
H       -0.17338400       1.62635800       1.70996400
H        0.53886500       2.98923400       0.82194100
H       -1.05110000       2.45368400       0.36715500
H       -3.17924300      -0.58824700      -1.06115700
H       -1.51592200      -0.01130300      -1.11986100
H       -1.86345200      -1.72208000      -1.35401600
H       -2.30697200      -0.17857700       1.27844100
H       -2.65305600      -1.88960500       1.04435400
H       -0.99016400      -1.31142300       0.98579500
H        1.58164700       0.11411600       1.27939300
H        2.93752200       0.64948900      -1.45558900
H        3.61639700      -0.28068700      -0.02771100
H        1.67695400      -1.86735000      -0.14796100
H        1.01260900      -0.93370000      -1.57958800
