21
Extracted from Q-Chem output
C      -0.439466      1.822753      0.542052
C      -0.099110      0.583118     -0.212876
C      -1.609678     -0.402796     -0.938167
C      -1.464206     -0.614785      0.874039
C       1.065101     -0.162855      0.273732
C       2.347873      0.091086     -0.491884
C       1.689205     -1.242785     -0.566577
H      -0.401207      1.748975      1.644421
H       0.315932      2.556827      0.243571
H      -1.411305      2.234001      0.260150
H      -2.490588     -1.055816     -0.807711
H      -1.991308      0.510795     -1.381670
H      -0.966565     -0.928313     -1.634454
H      -0.806612     -0.250247      1.658101
H      -2.472418     -0.285577      1.113272
H      -1.394716     -1.699492      0.861165
H       1.211870     -0.279962      1.355081
H       2.281906      0.734233     -1.358386
H       3.254804      0.188730      0.090416
H       2.151093     -2.074397     -0.051083
H       1.189601     -1.500696     -1.490740
