10
Extracted from Q-Chem output
O      -1.930337      0.568805      1.130561
C      -0.828602      0.385806      0.693168
C       0.474821      0.857410      0.767517
C       1.284702      0.095457     -0.090809
N       0.731685     -0.869753     -0.779102
N      -0.644233     -0.797728     -0.370805
H      -1.242275     -0.622877     -1.175695
H       0.787175      1.675667      1.391802
H       2.348833      0.246165     -0.231592
H      -0.934316     -1.678107      0.049750
