13
smiles: [C+:1]([c:2]1[c:3]([H:10])[c:4]([H:11])[c-:5][n:6]1[H:13])([H:7])[H:9].[H:8][H:12]
C        1.87878100       0.13524800       0.95774400
C        0.64777900       0.33240700       0.50312400
C       -0.29934000       1.40921500       0.77770500
C       -1.41194100       1.15137100       0.07712000
C       -1.28172800      -0.11123700      -0.70981400
N       -0.05460300      -0.50696700      -0.39463400
H        2.46574900      -0.72483100       0.65959100
H       -0.98875900      -2.91576900      -2.54258900
H        2.32857300       0.83786300       1.64570400
H       -0.08650600       2.23718900       1.43858200
H       -2.30913600       1.75320400       0.05971400
H       -1.30887900      -2.30300500      -2.26613100
H        0.35438200      -1.34803100      -0.76575300
