9
Extracted from Q-Chem output
N      -1.213283      0.616292      0.351028
C      -0.628016     -0.555773      0.670670
O      -1.180654     -1.623191      0.759198
C       0.838508     -0.446128      0.927500
C       1.942109     -1.187256      0.952779
C       2.331348      0.357646      0.115525
N       1.604121      0.836457      1.011490
H      -0.707806      1.483337      0.367542
H      -2.203459      0.622431      0.180303
