9
Extracted from Q-Chem output
N      -1.888298      0.432345      0.515965
C      -1.067954     -0.634531      0.636444
O      -1.428851     -1.781116      0.733949
C       0.360729     -0.286612      0.640666
C       1.536305     -0.051002      0.648909
C       2.887477      0.222794      0.656992
N       4.012757      0.459054      0.663100
H      -1.531607      1.366291      0.435064
H      -2.880557      0.272778      0.503990
