13
Extracted from Q-Chem output
C      -2.325285     -0.328940     -0.255770
O      -1.082436     -1.024783     -0.025245
C      -0.008801     -0.395456      0.013475
C       0.200578      1.060126     -0.151066
N       1.593782      1.281696      0.204452
C       2.073049      0.145121      0.509658
N       1.184575     -0.919922      0.409736
H      -2.190078      0.342415     -1.108352
H      -0.524590      1.571913      0.509409
H      -3.040691     -1.116716     -0.476695
H      -0.023377      1.421003     -1.160733
H       3.094517     -0.033438      0.820923
H       1.350146     -1.877633      0.661654
