13
Extracted from Q-Chem output
C      -2.134547     -0.144917     -0.250428
O      -1.022763     -1.063126     -0.145079
C       0.092900     -0.460568     -0.184501
C       0.190882      0.975030     -0.216147
N       1.490643      1.283410      0.310962
C       2.039912      0.164880      0.591167
N       1.268827     -0.952047      0.285107
H      -2.180043      0.253576     -1.266429
H      -0.890751      1.105163      0.349575
H      -3.022422     -0.729738     -0.021999
H      -0.055176      1.527692     -1.121435
H       3.029273      0.042175      1.010959
H       1.419282     -1.891243      0.608118
