17
Extracted from Q-Chem output
C      -1.736195     -0.087347     -1.119659
O      -0.927443     -0.811778     -0.428516
C       0.583158     -0.067217      0.388110
C       1.633534     -0.931143     -0.256230
C       0.256161     -0.397914      1.819902
C       0.473822      1.242726     -0.017551
C      -0.281181      1.978180     -0.693304
H      -1.744635     -0.239341     -2.207274
H      -2.718247      0.133764     -0.680049
H      -1.243920      1.149272     -1.111236
H       1.337972     -1.976873     -0.176038
H       2.589719     -0.799570      0.255392
H       1.759301     -0.676231     -1.307037
H       1.127012     -0.214304      2.453325
H      -0.013097     -1.451107      1.895096
H      -0.573267      0.208220      2.180140
H      -0.463450      2.971413     -1.058515
