14
smiles: [C-:2]1([H:11])[C@@:3]([C:5]#[N:6])([H:12])[N+:4]1([H:13])[H:14].[C:1]([H:7])([H:8])([H:9])[H:10]
C       -2.55087100       0.19257200       0.33353300
C        0.67745700      -1.20063100      -0.51688500
C        0.96488500      -0.02397600       0.36194100
N        2.12025400      -0.73754000      -0.20842400
C        0.88130100       1.35480000      -0.08560400
N        0.78374900       2.43330000      -0.46798500
H       -2.20819200       0.90358300      -0.41665400
H       -2.40296600       0.61345800       1.32696100
H       -3.60937500      -0.01287600       0.18078000
H       -1.98480800      -0.73320300       0.24366600
H        0.48798000      -0.83823200      -1.53170800
H        0.84580500      -0.12588100       1.43685300
H        2.68322800      -0.20472600      -0.85966900
H        2.65792200      -1.32437900       0.41154500
