14
Extracted from Q-Chem output
C      -0.362215     -1.588473      0.136036
C      -0.492885     -0.164840     -0.367615
C      -1.213892      0.852992      0.532418
O      -0.015064      1.657851      0.608809
C       0.684348      0.759175     -0.160540
C       1.957808      0.805300     -0.505664
H       0.019681     -1.605358      1.158493
H       0.326393     -2.159532     -0.488651
H      -1.328615     -2.097203      0.119962
H      -0.857018     -0.147483     -1.396316
H      -2.037947      1.409156      0.083233
H      -1.502932      0.482907      1.518829
H       2.595909      1.617501     -0.185245
H       2.373779      0.021525     -1.122384
