15
Extracted from Q-Chem output
C      -0.706653     -1.353122      0.966697
C      -0.395853     -0.313348     -0.101853
C      -1.185650      0.966774      0.015481
C       0.906803      0.356528      0.111730
O       1.187762      0.993353      1.231877
N       1.873663      0.342636     -0.785295
H      -0.706892     -0.896331      1.958379
H       0.002940     -2.183803      0.968236
H      -1.706938     -1.747512      0.783974
H      -0.394394     -0.795914     -1.089923
H       0.273571      1.343290      1.435285
H      -1.410307      1.444857     -0.932984
H      -2.050188      0.886518      0.671878
H       1.784135     -0.222791     -1.610146
H       2.656198      0.968343     -0.699028
