13
Extracted from Q-Chem output
C      -1.607913     -0.984938      0.296843
C      -1.056820      0.314923     -0.223329
N      -0.326935      1.249233      0.655181
C       0.391551      0.540268     -0.187974
C       1.685892      0.188821     -0.475435
C       2.656270      0.716252      0.379980
H      -0.915384     -1.453867      0.997200
H      -2.562748     -0.823689      0.800748
H      -1.777772     -1.676843     -0.529365
H      -1.663287      0.831722     -0.960535
H      -0.208221      1.281388      1.657320
H       1.829394     -0.485427     -1.320954
H       3.643409      0.329733      0.069062
