13
Extracted from Q-Chem output
C      -1.628505     -0.970007      0.390835
C      -0.961414      0.204108     -0.269551
N      -0.440845      1.350333      0.527758
C       0.442269      0.467576      0.004867
C       1.777446      0.192690     -0.139189
C       2.976626     -0.121008      0.259031
H      -1.101278     -1.262720      1.300059
H      -2.664419     -0.733394      0.641585
H      -1.631167     -1.825720     -0.285696
H      -1.400674      0.541391     -1.203382
H      -0.536079      1.391640      1.537232
H       1.457112      0.641411     -1.200481
H       3.798364      0.151277     -0.404327
