13
Extracted from Q-Chem output
O      -0.426394      0.992282      0.122971
C      -0.525990     -0.427642      0.071044
C      -1.482015     -0.802628     -1.055616
C       0.769383     -1.167420     -0.154290
O       1.813665     -0.399178     -0.189759
C       1.942371      0.998033      0.034724
O       2.262343      1.417531      1.091709
H      -0.384046      1.288901      1.034803
H      -0.912321     -0.830074      1.016744
H      -2.458304     -0.356054     -0.871550
H      -1.104020     -0.425284     -2.007480
H      -1.580116     -1.884264     -1.127320
H       1.918404      1.540996     -0.915329
