13
Extracted from Q-Chem output
N      -2.304264     -0.733634     -0.104494
C      -1.016626     -0.153968      0.024665
C      -0.419014      1.121520     -0.210840
C       0.979109      0.982722     -0.196354
C       1.233657     -0.359705      0.000948
O       2.379703     -1.038398      0.142319
N       0.079298     -1.032424      0.135439
H      -2.942473      0.011536     -0.372228
H      -1.495350      0.077876      1.050427
H      -0.982607      2.036210     -0.308731
H       1.717537      1.766579     -0.253126
H       3.120652     -0.443812      0.008411
H      -0.024769     -2.029904      0.198870
