13
smiles: [C:1]([O+:2]=[C-:3][H:10])([H:7])([H:8])[H:9].[C:4](=[O:5])([N:6]([H:12])[H:13])[H:11]
C        2.55031800       0.86255100      -0.68572800
O        1.17786000       0.43697400      -0.57404400
C        0.58714900       0.24596600       0.55280100
C       -2.58065200      -0.86082800      -1.41541400
O       -3.61631000      -1.23422300      -1.90710200
N       -2.35167000      -0.75208100      -0.08572800
H        3.08813100       0.10357800      -1.25118900
H        2.97887000       0.98167200       0.31165500
H        2.56142500       1.80566800      -1.22919800
H        1.33984200       0.47089700       1.36017000
H       -1.70475900      -0.56771300      -2.02272700
H       -3.08302400      -0.99403500       0.55991100
H       -1.46896800      -0.43449000       0.26682000
