13
smiles: [C-:6]#[O+:7].[C:1]([O:2][H:13])([H:8])([H:9])[H:10].[C:3](=[O:4])=[C:5]([H:11])[H:12]
C       -1.98099700       0.39140600       0.61380400
O       -0.88985400      -0.48251800       0.80905900
C        0.87117200      -0.21124900      -1.56455500
O        0.54468800       0.87673000      -1.77503600
C        1.24073300      -1.44241100      -1.32505100
C        1.78234200       1.24847600       1.35177400
O        2.77630400       1.75738000       1.22865500
H       -1.72816600       1.22906800      -0.04609200
H       -2.77311000      -0.18716600       0.13972200
H       -2.36715400       0.79045800       1.55868100
H        2.09631100      -1.84774600      -1.84170400
H        0.68252200      -2.03270300      -0.61564900
H       -0.17432800       0.00530500       1.21749100
