13
Extracted from Q-Chem output
C      -1.875000      0.458895      0.354868
O      -0.643682     -0.267074      0.300460
C       0.148147     -0.229537     -1.045302
O      -0.329099      0.433300     -1.911001
C       1.359316     -0.846162     -0.739168
C       1.621228      0.373332      1.038000
O       2.678056      0.692171      1.328052
H      -2.046424      0.924985     -0.614408
H      -2.671390     -0.244402      0.588590
H      -1.803952      1.222166      1.129095
H       2.103435     -0.846509     -1.524703
H       1.324617     -1.719835     -0.101292
H       0.215212      0.143698      0.947910
