15
Extracted from Q-Chem output
C      -1.619798      0.108211      0.619796
C      -1.030632     -0.398241     -0.678771
N       0.458286     -0.318965     -0.678276
C       1.131824     -1.186963      0.389557
C       1.966083     -0.268203      0.920958
N       1.899537      1.052845      0.376213
C       1.030337      1.027676     -0.532549
H      -2.705948      0.023846      0.576611
H      -1.255587     -0.485201      1.457071
H      -1.369812      1.155409      0.796260
H      -1.393723      0.173685     -1.536423
H      -1.267582     -1.450511     -0.830151
H       0.794225     -0.722969     -1.553882
H       2.670826     -0.439786      1.720388
H       0.707118      1.840496     -1.169525
