15
Extracted from Q-Chem output
C      -1.866584      0.117833      0.538774
C      -1.058027     -0.335609     -0.661086
N       0.379832     -0.162580     -0.431298
C       1.168413     -1.115375      0.463139
C       2.236303     -0.281900      0.709700
N       2.139067      1.006864      0.224864
C       1.036656      1.059922     -0.440267
H      -2.928905     -0.042338      0.351171
H      -1.578053     -0.452864      1.421376
H      -1.712642      1.178549      0.742632
H      -1.326812      0.218576     -1.563218
H      -1.214124     -1.397782     -0.850371
H       0.972807     -1.028091     -0.916349
H       3.114730     -0.566726      1.270304
H       0.652493      1.912853     -0.982096
