17
Extracted from Q-Chem output
C       1.872190     -0.544838      0.085302
C       0.559009      0.096883      0.494731
C       0.117414      1.296021     -0.364950
C      -1.383604      1.216040     -0.315271
C      -1.808028      0.064795      0.191326
C      -0.658965     -0.859660      0.499288
O      -0.588251     -1.917983     -0.448307
H       1.822430     -0.933424     -0.933201
H       2.688094      0.179690      0.132888
H       2.123868     -1.380834      0.740312
H       0.650991      0.461508      1.522918
H       0.476099      1.217803     -1.398410
H       0.501234      2.242948      0.021919
H      -2.028754      2.010762     -0.671410
H      -2.842700     -0.235887      0.301057
H      -0.754041     -1.365180      1.462274
H      -0.746985     -1.548645     -1.320465
