12
Extracted from Q-Chem output
C      -1.170478     -0.863415      0.256436
C      -0.094867      0.126120     -0.146741
C      -0.216465      2.398431      0.677698
O      -0.008783      1.150284      0.901779
C       1.218572     -0.489745     -0.296886
C       2.288519     -1.007543     -0.427307
H      -0.918123     -1.322116      1.211794
H      -1.252682     -1.646584     -0.497085
H      -2.130451     -0.354684      0.344710
H      -0.364700      0.650932     -1.069542
H      -0.438268      2.509426     -0.420951
H       3.244786     -1.462860     -0.537342
