14
Extracted from Q-Chem output
O       1.595246      0.647695     -0.778296
C       1.857705      1.452017      0.191827
C       0.172450     -0.995800      0.580361
C       0.382822     -0.149614     -0.673683
C      -1.328720     -0.639746      0.482819
C      -0.940457      0.564709     -0.405130
H       2.811280      1.923455     -0.134668
H       0.470936     -2.042568      0.542022
H       0.635587     -0.501459      1.434893
H       0.376237     -0.734189     -1.592298
H      -1.894277     -1.391157     -0.068926
H      -1.847296     -0.421346      1.414454
H      -1.566002      0.813301     -1.261288
H      -0.757465      1.452478      0.200935
