14
Extracted from Q-Chem output
O       1.653291      1.147266     -0.883421
C       2.302657      0.714914      0.059604
C       0.493397     -0.578071      0.644354
C       0.021298     -0.002191     -0.578506
C      -1.379890     -0.753597      0.272245
C      -1.312886      0.601416     -0.388640
H       3.319018      1.178372      0.113863
H       1.007275     -1.524656      0.678897
H       0.394590     -0.036519      1.571331
H       0.164315     -0.583090     -1.480964
H      -1.730198     -1.581649     -0.329978
H      -1.699331     -0.799671      1.303982
H      -1.896867      0.764798     -1.286452
H      -1.359688      1.438830      0.301948
