13
Extracted from Q-Chem output
O      -0.616885      1.137976      0.416427
C      -0.937365     -0.218361      0.250050
C      -1.285105     -0.652461     -1.133676
C       0.023192     -1.087336     -0.524648
O       1.186197     -0.541174     -1.016741
C       2.137491      0.718989      0.003001
O       2.500847      0.494966      1.057681
H      -0.345476      1.269567      1.326939
H      -1.484553     -0.658028      1.078095
H      -2.086057     -1.366070     -1.276156
H      -1.195038      0.107431     -1.899702
H       0.117411     -2.122369     -0.205618
H       1.556594      0.816965     -0.993927
