11
Extracted from Q-Chem output
C      -0.734299     -1.101560      0.930043
C       0.257999     -0.032558      0.512683
C       0.021851      0.490112     -0.875380
O      -0.841431      0.132967     -1.623822
C       0.976281      1.546420     -1.305435
N       1.723796      2.360407     -1.612848
H      -1.755091     -0.720945      0.898921
H      -0.683931     -1.964661      0.266460
H      -0.521354     -1.434827      1.945571
H       0.238891      0.832390      1.185184
H       1.291631     -0.395110      0.545515
