12
Extracted from Q-Chem output
N       2.311970     -0.716691      1.347998
C       1.577907     -0.630711      0.466886
C       0.729732     -0.693634     -0.671470
C      -0.705602     -0.767143     -0.629181
N      -1.506717     -0.083334      0.222996
C      -0.982480      1.094366      0.617978
N       0.227266      1.488960      0.395672
H       1.225721     -1.000423     -1.589535
H      -1.168581     -1.088783     -1.565753
H      -0.300506     -1.822791     -0.238492
H      -1.713177      1.742374      1.107842
H       0.343323      2.486954      0.528939
