17
Extracted from Q-Chem output
C       2.069923      0.922927     -0.443093
O       0.738636      0.949505      0.006918
C       0.011172     -0.225428     -0.266130
C       0.169428     -1.198938      0.910893
O      -0.438657     -2.450994      0.673110
C      -1.430810      0.104380     -0.514515
C      -1.957847      1.314886     -0.436000
H       2.644603      0.104819      0.007174
H       2.118435      0.825370     -1.534511
H       2.525903      1.867949     -0.151234
H       0.409449     -0.718728     -1.165455
H      -0.223026     -0.718318      1.813679
H       1.231082     -1.395583      1.071479
H      -2.056705     -0.744127     -0.778022
H      -3.012044      1.478880     -0.622102
H      -1.375453     -2.381688      0.861204
H      -1.345899      2.173843     -0.191190
