17
Extracted from Q-Chem output
C       2.050088      1.100729     -0.440470
O       0.655979      0.942890     -0.363066
C       0.255083     -0.388707     -0.466961
C       0.390945     -1.275845      0.779196
O      -1.017119     -1.538539      0.786856
C      -1.256122     -0.611279     -0.292714
C      -2.085105      0.575809      0.129247
H       2.562603      0.585625      0.381693
H       2.442439      0.716633     -1.391062
H       2.261518      2.166650     -0.372353
H       0.666266     -0.839900     -1.377985
H       0.712301     -0.726950      1.671121
H       0.978146     -2.192059      0.678158
H      -1.725121     -1.127628     -1.136228
H      -2.198813      1.276249     -0.699933
H      -3.074864      0.235054      0.437276
H      -1.618224      1.101266      0.961705
