17
Extracted from Q-Chem output
C       2.126577      1.008521     -0.358028
O       0.721415      0.989139     -0.398471
C       0.201574     -0.303709     -0.529661
C       0.224302     -1.200603      0.717298
O      -1.155052     -1.523572      0.808730
C      -1.317940     -0.270605     -0.637611
C      -2.064431      0.671816      0.087912
H       2.517495      0.462928      0.508972
H       2.555769      0.572512     -1.269511
H       2.432564      2.050666     -0.284377
H       0.643483     -0.793712     -1.407424
H       0.596550     -0.677708      1.607018
H       0.825351     -2.101600      0.570200
H      -1.790537     -0.903755     -1.379238
H      -3.111850      0.796123     -0.154698
H      -1.817329     -0.363116      0.918667
H      -1.541229      1.535240      0.479160
