8
Extracted from Q-Chem output
O      -1.434605      0.514166      1.160963
C      -0.179089      0.724509      0.956742
C       0.221575      0.445154     -0.436933
O       0.212717      1.299281     -1.291393
C       0.814555     -0.935567     -0.724763
O       0.731513     -1.843925      0.049725
H      -1.654714      0.745254      2.073290
H       1.280797     -1.018225     -1.725668
