15
Extracted from Q-Chem output
C      -3.274203     -0.078297      0.032112
C      -0.769529     -0.422109     -0.409483
C      -0.319120     -0.234560      0.916406
O      -0.767264     -0.272078      2.035404
C       1.118604     -0.115570      0.556333
C       2.264597      0.022173      0.217509
C       3.657595      0.174666     -0.164009
H      -2.998750      0.409057      0.962704
H      -4.101969     -0.765301      0.202158
H      -3.527492      0.642894     -0.741341
H      -0.815699      0.484734     -1.016170
H      -2.446442     -0.737383     -0.333844
H       3.858588      1.193236     -0.497845
H       4.305710     -0.045165      0.685415
H       3.906332     -0.514204     -0.972402
