17
Extracted from Q-Chem output
C      -1.745237      0.005162      1.207173
C      -2.345635      0.750515      0.139695
C      -0.731275     -0.881042      0.349139
C       0.594236     -0.460597      0.119116
C       1.491572     -0.173724     -1.046774
C       2.338361      0.540234      0.013567
O       1.324978      0.268677      1.018821
H      -1.143035      0.568011      1.921623
H      -2.414984     -0.663789      1.743612
H      -3.242464      0.393247     -0.347183
H      -1.832882      1.598158     -0.296073
H      -1.174893     -1.443405     -0.463691
H       0.118472     -1.668238      0.793504
H       1.942074     -1.020854     -1.558577
H       1.000118      0.481767     -1.772941
H       3.280379      0.058510      0.276158
H       2.476275      1.612619     -0.112667
