11
Extracted from Q-Chem output
C      -2.059118     -0.138014      0.084639
C      -0.600630     -0.204879      0.348083
O       0.034524      0.322174     -0.660442
C       1.471481      0.361873     -0.631013
O       2.016303      0.849569     -1.569506
N       1.986047     -0.169940      0.477428
H      -2.343791      0.358794     -0.846030
H      -2.431621     -1.167348      0.098839
H      -2.530170      0.344237      0.945517
H       1.339289     -0.535710      1.163860
H       2.981706     -0.185204      0.584675
