11
Extracted from Q-Chem output
C      -1.987676     -0.089967      0.063064
C      -0.531061      0.169091      0.055583
O       0.113245     -0.155862     -1.005135
C       1.189838      0.559669     -0.168231
O       1.496845      1.684540     -0.428014
N       1.973188     -0.382616      0.464458
H      -2.319500     -0.627942     -0.829512
H      -2.255654     -0.628591      0.973672
H      -2.486945      0.881431      0.124223
H       1.812028     -1.346460      0.230851
H       2.938287     -0.104925      0.518497
