17
Extracted from Q-Chem output
C       1.856168      0.759657     -0.857237
C       0.796054     -0.138658     -0.304990
C      -0.273754     -1.382396      0.971349
C      -1.264299     -1.129445     -0.147041
C      -0.703948      0.211484     -0.599582
C      -0.664159      1.111404      0.614777
O       0.424950      0.354229      1.181377
H       2.827580      0.542238     -0.410463
H       1.940930      0.561986     -1.929655
H       1.659138      1.835892     -0.727393
H       0.423142     -2.200033      0.875673
H      -0.662266     -1.283021      1.985512
H      -2.306064     -1.123124      0.189322
H      -1.123637     -1.870146     -0.936601
H      -1.044020      0.602933     -1.557633
H      -1.534698      1.155515      1.276878
H      -0.316528      2.124605      0.409181
