14
Extracted from Q-Chem output
C       1.821590      0.562200     -0.032405
C       0.393756      0.216345      0.205928
C      -0.283115     -1.154501      0.111541
C      -1.617240     -0.424966     -0.228377
C      -0.867373      0.896557     -0.104312
O      -0.316460      0.938466      1.207396
H       2.167762      0.141471     -0.977978
H       1.949687      1.644475     -0.060090
H       2.448982      0.162327      0.767606
H       0.085111     -1.757715     -0.718714
H      -0.257711     -1.739487      1.031132
H      -2.442912     -0.552266      0.471652
H      -1.958601     -0.631693     -1.242591
H      -1.061275      1.846160     -0.587513
