11
Extracted from Q-Chem output
C      -1.663469     -0.526289      0.045002
N      -0.351707     -0.041593     -0.349233
C       0.897865      1.708745      0.112607
N       1.989084      1.304230      0.179315
C       1.783345     -0.815981      0.025424
N       0.608001     -0.840541     -0.210326
H      -1.979397     -1.371957     -0.571810
H      -1.695699     -0.827463      1.097559
H      -2.372190      0.286296     -0.107444
H       0.097988      2.415527      0.085429
H       2.686177     -1.290975     -0.306522
