13
Extracted from Q-Chem output
C       1.923849      0.311850      0.482058
O       1.372458      0.677621     -0.641992
C       0.124522      0.736303     -0.965323
C      -1.077372     -1.149578      0.217763
C      -0.932405      0.365173     -0.002717
H       1.317712     -0.019099      1.309995
H       2.994330      0.412783      0.507083
H      -0.123852     -1.614814      0.472953
H      -0.038817      1.093181     -1.970243
H      -1.447789     -1.630147     -0.688248
H      -1.779928     -1.358671      1.026357
H      -1.880377      0.774444     -0.356311
H      -0.717029      0.854539      0.961196
