13
Extracted from Q-Chem output
C       1.826289      0.150783      0.696073
O       0.882043     -0.742026      0.156532
C      -0.096472     -0.097629     -0.587232
C      -1.416900     -0.768216     -0.670029
C      -1.269402      0.506150      0.124200
H       1.350933      0.882872      1.359807
H       2.361486      0.692218     -0.094243
H       2.541066     -0.440068      1.267140
H       0.279603      0.413641     -1.472189
H      -1.951935     -0.740874     -1.609666
H      -1.519128     -1.687192     -0.108631
H      -1.703187      1.418166     -0.264276
H      -1.284395      0.412174      1.202513
