17
Extracted from Q-Chem output
C       1.621726     -0.597540     -0.390023
C       0.668819      0.320902      0.343711
C      -0.051002      1.442952     -0.164179
C      -1.386294      0.738912     -0.156524
O      -1.623832     -0.361147     -1.052722
C      -1.305707     -1.346831     -0.054912
C      -0.683723     -0.279738      0.839842
H       2.177833     -1.215989      0.317400
H       2.336821     -0.010354     -0.965314
H       1.091663     -1.261617     -1.073945
H       1.656678      1.284171      0.570143
H      -0.049080      2.394059      0.347228
H       1.518476      1.930594     -0.330881
H      -2.302823      1.292312      0.054362
H      -0.669978     -2.145990     -0.438811
H      -2.219396     -1.781948      0.363389
H      -0.901338     -0.237701      1.903340
