15
smiles: [C:1](=[C:2]([H:9])[H:10])([H:6])[H:7].[C:3]1([H:11])=[C:4]([H:12])[C:5]1([H:14])[H:15].[H:8][H:13]
C        2.23587200      -0.29223400       1.00775300
C        1.79943100      -0.91545100      -0.07315600
C       -1.89871200      -0.85565400      -0.72967000
C       -1.99600100       0.41066900      -0.92265400
C       -1.86669300      -0.01248900       0.51105600
H        1.69036500      -0.32648300       1.94392000
H        3.15743600       0.27863500       1.00217400
H        0.70664700       2.04066900      -0.41151400
H        2.34472300      -0.88114400      -1.00944200
H        0.87783500      -1.48629300      -0.06736300
H       -1.86246100      -1.85552900      -1.12376800
H       -2.09962100       1.24253100      -1.59608900
H        0.55966100       2.75454200      -0.56401700
H       -0.92335800       0.13868800       1.03419500
H       -2.73988200       0.01972000       1.16149200
