12
Extracted from Q-Chem output
O       0.979614      2.339392      0.320582
C       0.508589      1.241353      0.251722
N       1.244490      0.048443      0.153950
C       0.528872     -1.104283      0.055703
C      -0.909601     -0.645728      0.120465
O      -1.167255     -0.069895      1.385362
C      -0.933952      0.808608      0.284228
H       2.236288      0.062465      0.330481
H       0.704009     -1.827791     -1.031146
H       0.339057     -1.379438     -1.691561
H      -1.706281     -1.220844     -0.334016
H      -1.727824      1.487147      0.004298
