9
Extracted from Q-Chem output
N      -1.403914      0.546785      0.388895
C      -0.802995     -0.622572      0.688762
O      -1.354316     -1.674427      0.900471
C       0.664805     -0.553164      0.751101
C       1.875194     -0.922784      0.904502
C       2.834327      0.527332      0.622336
N       1.633292      0.744871      0.506025
H      -0.879514      1.386408      0.224775
H      -2.406824      0.562076      0.331981
