17
Extracted from Q-Chem output
C      -2.308577      0.703701     -0.754102
C      -1.441584     -0.513110     -0.842334
C      -0.116161     -0.568262     -0.885474
C       0.841749      0.582685     -0.861061
C       1.774159      0.577552      0.327831
C       1.705687     -0.243851      1.334456
C       1.640033     -1.063630      2.341698
H      -2.979177      0.761471     -1.615449
H      -2.939952      0.657393      0.136896
H      -1.738591      1.630813     -0.710478
H      -1.977020     -1.458745     -0.869743
H       0.348436     -1.549480     -0.932750
H       0.314506      1.539132     -0.884847
H       1.454503      0.558986     -1.769601
H       2.560505      1.328026      0.336561
H       1.041766     -0.829322      3.214695
H       2.177873     -2.004753      2.335319
