17
Extracted from Q-Chem output
C       1.939679     -0.213747     -0.539936
N       0.884830      0.672057     -0.097096
C       0.403060      0.527705      1.263204
C      -0.465649      0.169249      0.113142
C      -1.547241      1.128441     -0.321397
C      -0.798650     -1.283275     -0.140438
H       1.961974     -1.185856     -0.030146
H       1.841241     -0.389381     -1.612990
H       2.899970      0.275362     -0.367602
H       0.242255      1.447566      1.816154
H       0.807447     -0.292000      1.853712
H      -2.476451      0.943803      0.223691
H      -1.752657      1.013914     -1.389018
H      -1.236379      2.157944     -0.145586
H      -1.741439     -1.537076      0.348236
H      -0.922678     -1.468170     -1.211084
H      -0.039313     -1.966538      0.237152
