17
Extracted from Q-Chem output
C       1.929320     -0.216760     -0.511734
N       0.765752      0.312042      0.161233
C       0.687338      0.845744      1.421156
C      -0.524424     -0.014960     -0.029609
C      -1.587413      1.026935     -0.220093
C      -0.884463     -1.432813     -0.373680
H       2.171397     -1.230962     -0.176032
H       1.774424     -0.224755     -1.592623
H       2.774847      0.430592     -0.274190
H       1.126758      1.815906      1.638582
H       0.323315      0.229848      2.231307
H      -2.395893      0.941553      0.510386
H      -2.046849      0.913198     -1.212962
H      -1.161726      2.025344     -0.134706
H      -1.941609     -1.627223     -0.189374
H      -0.698123     -1.640107     -1.434994
H      -0.297119     -2.147994      0.207113
