20
Extracted from Q-Chem output
C      -1.747662      1.031459     -0.242135
C      -0.790585      0.022559      0.090784
C      -1.017178     -1.342965     -0.502718
C       0.649602      0.479948      0.310522
C       1.519656     -0.497151      1.089151
C       1.271514      0.795340     -1.052302
H      -1.509416      2.073509     -0.085736
H      -2.671665      0.757280     -0.728914
H      -1.615457      0.319797      1.053416
H      -1.037443     -0.448146      1.608999
H      -0.717128     -1.298726     -1.553023
H      -2.074265     -1.602660     -0.472132
H      -0.447918     -2.118917      0.006443
H       0.586535      1.415516      0.874347
H       1.707317     -1.408916      0.517106
H       1.053336     -0.776835      2.035274
H       2.488124     -0.043128      1.305589
H       0.641306      1.469386     -1.632866
H       2.247126      1.264146     -0.915300
H       1.425111     -0.115607     -1.636007
