11
Extracted from Q-Chem output
O       0.731845     -1.009513     -0.708754
C       0.589635     -0.907284      0.738811
C      -0.544127      0.105330      0.561520
O      -0.313076      1.353899      1.142255
C      -0.203209     -0.033027     -0.907371
N      -0.585993      0.552787     -1.939622
H      -0.094880      0.232542     -2.770769
H       0.333968     -1.871592      1.174366
H       1.486394     -0.485487      1.190153
H      -1.534605     -0.290438      0.808531
H      -0.757283      2.017665      0.607890
