7
Extracted from Q-Chem output
O       1.821801     -0.819382      0.026033
C       0.685213     -0.471297     -0.013768
N       0.093188      0.713566      0.347924
N      -1.227221      0.677195      0.132215
N      -1.529364     -0.428199     -0.335525
O      -0.379180     -1.201948     -0.454135
H       0.535562      1.530065      0.728450
