15
Extracted from Q-Chem output
C      -2.123130      0.011000      0.540257
N       0.716610     -1.064950     -0.859653
C       2.005581     -1.035857     -0.445440
C       2.276087      0.095626      0.318179
C       1.073890      0.829368      0.390623
C       0.202118      0.052900     -0.351606
N      -1.226276      0.251525     -0.619296
H      -3.164320      0.132962      0.239787
H      -1.936056     -1.000678      0.890492
H      -1.865636      0.719137      1.322963
H       2.685911     -1.830717     -0.717441
H       3.221450      0.367870      0.763544
H       0.891363      1.767560      0.894110
H      -1.398899      1.174938     -1.011425
H      -1.409375     -0.437260     -1.352623
