9
Extracted from Q-Chem output
O       2.240801      0.239594     -0.248836
C       0.962100      0.496033     -0.074865
C      -0.016622      1.225254      0.056450
N      -1.641605     -0.260181      0.313321
N      -0.897858     -1.235276      0.100664
N       0.228998     -1.437261     -0.010599
H       2.366243     -0.714833     -0.280848
H      -0.669945      2.053454      0.184301
H      -2.585774     -0.378877     -0.040723
