11
Extracted from Q-Chem output
N      -1.787219     -0.467090      0.079372
C      -0.611906      0.084746     -0.178670
C       0.398857     -0.898418      0.108953
N       1.512574     -0.085329      0.422617
N       1.289218      1.186535      0.162238
C       0.050944      1.341833     -0.270368
H      -0.871069     -1.409736      0.543966
H      -2.621725     -0.135571     -0.394019
H       0.579070     -1.629052     -0.680541
H       2.439245     -0.359999      0.687009
H      -0.326527      2.325881     -0.495253
