14
Extracted from Q-Chem output
C      -2.234303     -0.206918     -0.114963
C      -1.186088      0.506590     -0.494265
C      -0.010868      0.831347      0.377456
C       1.274933      0.274408     -0.181098
C       1.801819     -1.013427      0.252172
O       2.374328      0.203884      0.708485
H      -2.311835     -0.609699      0.889784
H      -3.054087     -0.412627     -0.792221
H       2.427281     -1.600234     -0.414020
H      -1.150897      0.891279     -1.511516
H      -0.159817      0.436857      1.385179
H       0.095411      1.917903      0.467248
H       1.538548      0.616659     -1.181356
H       1.256972     -1.579969      1.002924
