10
Extracted from Q-Chem output
C      -0.835289      1.378108      0.378763
C       0.257258     -1.186245     -0.088188
C       0.929148      0.076530     -0.415097
O       0.340802      1.195592     -0.159534
H      -1.442953      0.535659      0.666390
H      -0.711427     -1.265815     -0.607661
H      -1.117856      2.409184      0.494545
H       0.026226     -1.245605      0.987947
H       0.874521     -2.039138     -0.362101
H       1.902717      0.185586     -0.864590
