10
Extracted from Q-Chem output
C      -1.901461      0.944946      0.217061
C       0.216087     -0.944211     -0.158643
C       1.329836      0.050386     -0.248494
O       1.183569      1.241415     -0.285428
H      -1.633785      0.918647      1.293383
H      -0.778822     -0.485004     -0.314376
H      -1.327385      1.816881     -0.147345
H       0.243555     -1.429722      0.820542
H       0.345151     -1.726505     -0.910441
H       2.350278     -0.384858     -0.268554
