8
Extracted from Q-Chem output
O       2.437118      0.076827     -0.018494
C       1.266745     -0.004770      0.014361
O       0.578628     -1.151559      0.548247
C      -0.717166     -1.048727      0.490018
C      -0.942001      0.290427     -0.139161
O       0.348465      0.853404     -0.392246
H      -1.492158      0.184084     -1.076841
H      -1.507487      0.938579      0.534074
