16
smiles: [C:1](/[C:2](=[N:3]\[H:12])[H:11])([H:8])([H:9])[H:10].[C:4](=[C:5]1[C:6]([H:15])([H:16])[O:7]1)([H:13])[H:14]
C       -2.09448700      -0.38183500       0.34077200
C       -1.17004900      -0.09334100       1.48401500
N       -0.26024600      -0.83572000       1.94786800
C        0.74937200       1.33467300      -1.56136500
C        1.35612400       0.37510800      -0.90216300
C        2.25936900      -0.20435900       0.04348100
O        1.37034300      -0.96813800      -0.83008500
H       -1.97216400       0.37249400      -0.44044800
H       -3.13411200      -0.33087200       0.67372700
H       -1.90849300      -1.36785300      -0.08768400
H       -1.30423800       0.87880900       1.96766600
H       -0.21407800      -1.71543600       1.43156000
H        0.99506900       2.36550600      -1.35458600
H        0.00442900       1.10556500      -2.31058400
H        3.31314300      -0.30079000      -0.19614300
H        1.99622200      -0.24420800       1.09537500
