16
Extracted from Q-Chem output
C      -1.845199     -0.553114      0.132888
C      -1.157529      0.627791      0.799827
N      -0.632855      0.527238      2.052748
C       0.251754      1.007871      0.023155
C       1.128504      0.092622     -0.541540
C       2.355182     -0.632600     -0.725106
O       1.023844     -1.087975     -1.150918
H      -2.068426     -0.361436     -0.920400
H      -2.784062     -0.744489      0.654604
H      -1.234712     -1.456440      0.198981
H      -1.759242      1.533453      0.674166
H      -0.282198     -0.423597      2.178239
H       0.745851      1.864202      0.466950
H       0.455711      1.177226     -1.202508
H       3.023410     -0.381168     -1.540052
H       2.772494     -1.192930      0.105511
