16
Extracted from Q-Chem output
C       2.876446     -0.016459      0.130675
C       0.602881      0.171664     -0.997078
C      -0.135296     -0.569709     -0.070771
O       0.071100     -1.381825      0.800625
C      -1.579935     -0.201280     -0.544579
C      -2.394839      0.262192      0.654477
H       3.116285      1.039655      0.227588
H       2.376236     -0.399681      1.015168
H       3.776623     -0.594770     -0.073168
H       2.243535     -0.177243     -0.780010
H       0.655252      1.246267     -0.810876
H      -1.972824     -1.121249     -0.980587
H      -1.584615      0.546642     -1.344685
H      -1.999464      1.193758      1.064287
H      -3.432402      0.435207      0.365412
H      -2.369413     -0.492213      1.440032
