12
Extracted from Q-Chem output
O      -1.875134      0.402032     -0.104773
C      -0.697027     -0.344282     -0.368518
C       0.428170      0.473365     -1.023118
C      -0.005541     -0.803785      0.885365
C       1.113351     -0.099508      1.021804
O       1.400443      0.741405      0.002462
H      -1.705955      0.958172      0.660015
H      -1.019315     -1.154764     -1.022831
H       0.927713     -0.096391     -1.810137
H       0.067947      1.419851     -1.424363
H      -0.406494     -1.511358      1.593251
H       1.830058     -0.090860      1.831535
