12
Extracted from Q-Chem output
O      -1.776940      0.768084     -0.098990
C      -0.831389     -0.217879     -0.409258
C       0.205131      0.203720     -1.291417
C       0.127722     -0.686390      0.671915
C       1.183241      0.138297      1.065752
O       1.689112      1.016191      0.356405
H      -1.900439      0.760579      0.852745
H      -1.298610     -1.142908     -0.771003
H       0.733713     -0.537925     -1.874379
H       0.407767      1.248308     -1.469635
H      -0.033162     -1.662897      1.111089
H       1.552070      0.006699      2.097466
