17
Extracted from Q-Chem output
C      -2.098390     -0.426578      0.395551
C      -1.004022      0.539372      0.073572
O      -0.856601      1.585887      0.919872
C       0.358389     -0.913440     -0.789616
C       1.610685     -0.096970     -1.157677
C       1.753298      0.253970      0.317985
O       0.518297     -0.381676      0.695548
H      -2.964521      0.132839      0.763009
H      -2.362229     -0.998077     -0.488661
H      -1.780740     -1.122188      1.172974
H      -0.941299      0.925310     -0.931796
H      -0.936786      1.279069      1.830083
H       0.566206     -1.987855     -0.725719
H       2.450431     -0.646784     -1.584905
H       1.409072      0.766033     -1.801945
H       1.750298      1.314469      0.586228
H       2.575458     -0.247041      0.837249
