12
smiles: [C:3](=[O:4])([C:5]#[N:6])[H:11].[H:7][H:12].[N:1](=[C:2]([H:9])[H:10])[H:8]
N       -1.37171500       0.18202100      -0.46750100
C       -1.29994600      -0.43496500      -1.56432600
C        1.33093200       1.17186000       1.05188600
O        2.10008800       1.61542800       1.84860800
C        1.77677700       0.43446200      -0.14482600
N        2.08678700      -0.14351800      -1.08587500
H       -0.18131600      -1.39531100       1.47551300
H       -2.34035400       0.38978800      -0.22800100
H       -0.31908300      -0.72240200      -1.94462400
H       -2.16187100      -0.71269600      -2.17950400
H        0.23790600       1.27265800       1.14018300
H        0.14768900      -1.67930200       2.08006600
