12
Extracted from Q-Chem output
N      -1.476075     -0.894716      0.160730
C      -0.942811     -0.112124     -0.739119
C       0.933506      0.752044      0.316751
O       1.051778      0.122685      1.387740
C       1.796121      0.435945     -0.812258
N       2.468945      0.209457     -1.715246
H      -0.576601     -1.274511      1.137364
H      -2.109823     -0.382663      0.772056
H      -0.379307     -0.572742     -1.543078
H      -1.297123      0.904587     -0.882037
H       0.469499      1.738883      0.298874
H       0.093480     -0.879159      1.576647
