12
Extracted from Q-Chem output
C       2.751163     -0.124285      0.063966
C       1.607906      0.034037     -0.254078
C       0.211885      0.204133     -0.640546
C      -0.818846     -0.742762      0.005385
C      -1.470721      0.548106      0.510134
O      -0.415099      1.350998     -0.043379
H       3.768799     -0.256842      0.346792
H       0.146053      0.252300     -1.732491
H      -1.402617     -1.339995     -0.691017
H      -0.402969     -1.379783      0.781962
H      -1.538762      0.663133      1.594087
H      -2.436793      0.790961      0.059185
