19
Extracted from Q-Chem output
C      -2.558297     -0.198854      0.050924
C      -1.165194      0.409492      0.026931
C      -0.104374     -0.414505      0.781159
C       1.209460     -0.024277      0.180316
C       2.529861     -0.510251      0.651658
C       0.906420      0.463030     -1.114810
C      -0.527490      0.557535     -1.339107
H      -2.543435     -1.203228     -0.377051
H      -2.943534     -0.261718      1.071890
H      -3.257778      0.402416     -0.533435
H      -1.230115      1.405511      0.512671
H      -0.170368     -0.349703      1.868463
H      -0.262607     -1.477494      0.495693
H       0.710308      1.495266     -0.636872
H       2.608944     -1.602130      0.542623
H       2.694074     -0.287710      1.708894
H       3.348241     -0.066848      0.081742
H       1.655479      0.572257     -1.892671
H      -0.929679      1.221628     -2.094941
