17
Extracted from Q-Chem output
C       2.474996      0.355365     -0.012576
C       1.201476     -0.461446     -0.180028
C      -0.003595      0.237651      0.427115
N      -1.224382     -0.538851      0.232514
C      -2.526110      0.132706      0.154002
C      -2.040637     -0.556108     -1.077185
H       2.388526      1.326337     -0.505849
H       3.331563     -0.159941     -0.447892
H       2.697428      0.537059      1.041767
H       1.001230     -0.646187     -1.238032
H       1.324797     -1.442678      0.289915
H      -0.164490      1.204547     -0.054639
H       0.147736      0.416612      1.497812
H      -3.311317     -0.327706      0.749116
H      -2.438010      1.205207      0.328034
H      -1.214818     -1.432092      0.702869
H      -1.528482      0.183983     -1.707757
