12
Extracted from Q-Chem output
C      -1.641167     -0.780253      0.357678
C      -0.440489      0.088276      0.221320
C       0.610483     -0.014218     -0.820687
N       1.933005      0.138062     -0.431830
N       2.312555      0.909997      0.442891
C       0.071469      1.169681      0.672733
H      -2.178971     -0.826334     -0.591374
H      -1.334317     -1.797365      0.611142
H      -2.317742     -0.405399      1.124547
H       0.390871     -0.106314     -1.878553
H       2.576608     -0.545374     -0.854608
H       0.013379      2.129790      1.146320
