14
Extracted from Q-Chem output
C      -1.868388      0.027924      0.109105
C      -0.382733     -0.016717      0.033803
N       0.396145     -0.698841      1.073105
C       0.740478      0.772062      0.782441
C       1.691103      0.527067     -0.429205
C       0.467045      0.016975     -1.188305
O       0.134483      0.105183     -2.339067
H      -2.232214      0.714074     -0.655950
H      -2.197861      0.397205      1.082000
H      -2.316179     -0.950755     -0.077614
H       0.990317     -1.475668      0.802716
H      -0.087857     -0.833378      1.947465
H       2.525548     -0.150768     -0.240605
H       2.071087      1.435557     -0.894269
