16
Extracted from Q-Chem output
C      -2.204336     -0.745788     -0.108888
C      -0.855768     -0.228361     -0.560613
O      -0.991794      1.160038     -0.796758
C       0.224556     -0.491054      0.487055
N       1.503278      0.034036      0.074542
C       2.183565      1.011619      0.583226
O       3.265462      1.154198     -0.081188
H      -2.167011     -1.820559      0.077437
H      -2.956168     -0.552385     -0.873580
H      -2.515737     -0.241485      0.808260
H      -0.560038     -0.735053     -1.490054
H      -0.157442      1.486402     -1.142456
H      -0.082180     -0.028205      1.431191
H       0.315267     -1.568171      0.652639
H       2.628570      0.148851     -0.637802
H       1.916679      1.633870      1.436138
