12
smiles: [C:1]([H:7])([H:8])([H:9])[H:10].[C:2]1=[O+:3][C:4]([H:11])([H:12])[C:5]=1[O-:6]
C       -1.98577500      -0.54167500      -0.23855600
C        0.82631000       0.21385000       1.67320900
O        1.45013000      -0.71511000       0.98700700
C        1.67485100      -0.01792900      -0.28167900
C        0.95283500       1.15441200       0.40989300
O        0.64880200       2.25315700       0.09942900
H       -3.03241400      -0.77355700      -0.43065300
H       -1.62651200       0.15977100      -0.98994200
H       -1.39731400      -1.45672600      -0.28330800
H       -1.88923900      -0.09539300       0.75007800
H        1.15966700      -0.50972700      -1.10658600
H        2.73814900       0.10184200      -0.48885500
