12
Extracted from Q-Chem output
C      -1.630830     -0.479036     -0.257838
C       0.107049     -0.313628      1.068226
O       1.112150     -0.983573      0.426170
C       1.682493      0.185991     -0.211440
C       0.535823      0.989531      0.417156
O       0.181650      2.124760      0.394952
H      -2.025667      0.531624     -0.281483
H      -1.041967     -0.739026     -1.130561
H      -2.405241     -1.224355     -0.071553
H      -1.070736     -0.693836      0.899989
H       1.649211      0.112563     -1.300688
H       2.694274      0.397284      0.134555
