14
Extracted from Q-Chem output
O       1.844100     -0.903386     -0.892362
C       1.141378     -0.508302      0.187097
C       0.835526      0.858569      0.599503
C      -1.130885      0.914762     -0.047820
C      -1.261506     -0.421394     -0.613665
C      -0.251770     -0.878981      0.552970
N      -0.513237      0.495618      1.172382
H       1.853350     -0.190751     -1.546603
H       1.544809      0.397604      1.419230
H       1.141366      1.843275      0.269855
H      -1.529769      1.897251     -0.236635
H      -1.117949     -0.627483     -1.675340
H      -2.158833     -0.939707     -0.263105
H      -0.507693     -1.790101      1.083932
