11
Extracted from Q-Chem output
C      -1.376897      0.702544     -0.155181
C      -0.035557      0.422102      0.438069
C       0.827288     -0.502369      0.019789
O       0.679952     -1.369007     -1.013334
C       2.092577     -0.671469      0.686566
N       3.095529     -0.791731      1.231159
H      -1.613159      0.078814     -1.019623
H      -1.443786      1.743192     -0.479597
H      -2.164650      0.542225      0.584219
H       0.271762      1.017654      1.288155
H      -0.172272     -1.225680     -1.432576
