11
Extracted from Q-Chem output
C      -1.530086      0.227479     -0.151627
C      -0.085612     -0.088460     -0.491955
C       0.836772      0.003593      0.689916
O       0.520809      0.294676      1.807219
C       2.259565     -0.304098      0.385418
N       3.350595     -0.545080      0.125836
H      -1.915004     -0.463480      0.598186
H      -2.151538      0.150769     -1.043554
H      -1.625736      1.236125      0.250059
H       0.312203      0.583855     -1.260404
H       0.028033     -1.095378     -0.909095
