13
Extracted from Q-Chem output
C      -2.282380      0.284539     -0.158058
O      -1.589495     -0.145162      1.024725
C       0.025773     -0.035143      0.878465
N      -0.547240      0.924513      1.453335
N       2.373529      0.911929     -0.349243
C       2.045706     -0.316805     -0.410042
C       0.849988     -0.848656      0.212123
H      -3.029663     -0.482903     -0.353500
H      -2.747674      1.246551      0.049380
H      -1.585936      0.360235     -0.993673
H       3.230294      1.082836     -0.865537
H       2.642042     -1.064320     -0.945308
H       0.626892     -1.905510      0.202363
