8
Extracted from Q-Chem output
N      -0.214130      0.932501     -0.142933
C       1.057842      0.629765      0.250590
N       0.975622     -0.705567      0.231000
N      -0.224867     -1.248851     -0.137792
C      -0.944198     -0.203349     -0.364109
H      -0.546621      1.872972     -0.249994
H       1.723164     -1.332919      0.463820
H      -1.973732     -0.225643     -0.682239
