8
Extracted from Q-Chem output
N      -0.042835      0.826368     -0.212283
C       1.129493      0.182132     -0.493303
N       0.824838     -1.142254     -0.330819
N      -0.508482     -1.302340      0.033767
C      -0.999232     -0.108222      0.033248
H      -0.174202      1.821572     -0.243206
H       1.715225     -0.583378      0.360846
H      -2.041940      0.125628      0.187548
