11
Extracted from Q-Chem output
O       0.337623      1.456967     -0.603596
C       0.009160      0.380522      0.236306
C      -1.355244     -0.150790     -0.147729
N       1.284778     -1.897965      0.198696
C       1.060739     -0.674721      0.138282
O       2.353962     -0.582251     -0.028128
H       1.235575      1.747505     -0.421623
H       0.004886      0.690286      1.292124
H      -2.099778      0.631188     -0.006428
H      -1.359626     -0.456793     -1.193635
H      -1.621389     -1.006275      0.474433
