11
Extracted from Q-Chem output
O       0.381780      1.480085     -0.807813
C       0.092773      0.544642      0.193542
C      -1.206390     -0.190994     -0.099078
N       0.469599     -1.792440      0.225843
C       1.044799     -0.620663      0.226640
O       2.270598     -0.708842      0.265522
H       1.301230      1.748281     -0.720383
H       0.074009      1.010484      1.186445
H      -2.043386      0.065928      0.546069
H      -1.465861     -0.126713     -1.153409
H      -1.028062     -1.309327      0.091768
