14
Extracted from Q-Chem output
O      -2.234456     -0.329182     -0.900479
C      -1.404530     -0.502892      0.107183
C      -0.038390     -1.186592     -0.092350
N       0.704337      0.041002      0.107639
C      -0.315492      1.041732      0.282290
C       2.010570      0.302709     -0.117853
O       2.491525      1.409819     -0.075217
H      -1.476827      0.670721     -0.474281
H      -1.821824     -0.598982      1.120084
H       0.170579     -1.962302      0.647916
H       0.037538     -1.593210     -1.102980
H      -0.412641      1.452199      1.285651
H      -0.249002      1.859739     -0.450294
H       2.596833     -0.606852     -0.340571
