12
Extracted from Q-Chem output
C      -0.864353      1.472625      0.597453
N       0.208967     -0.209515     -0.145577
C       1.469885     -0.732590     -0.606448
C      -0.867372     -0.884965      0.016264
O      -1.880851     -0.271896      0.440952
H      -0.093454      1.994649      0.051569
H      -0.653134      1.339216      1.648046
H      -1.859702      1.834576      0.381774
H       2.247664     -0.577967      0.145531
H       1.414334     -1.805625     -0.817856
H       1.786495     -0.226382     -1.521912
H      -0.931678     -1.957995     -0.192948
