12
Extracted from Q-Chem output
C      -1.594102     -0.042464     -0.535265
C      -1.153331     -1.275853      0.241221
C      -0.222355     -0.172289     -0.027049
C       0.961009      0.321198      0.086527
C       2.164603      0.816236      0.191301
O       2.623234      1.613313      1.201351
H      -2.258327      0.656917     -0.041298
H       1.911912      1.752899      1.831623
H      -1.752312     -0.144306     -1.602497
H      -1.019510     -2.200590     -0.307614
H      -1.523875     -1.397344      1.252351
H       2.931486      0.625681     -0.549181
