12
Extracted from Q-Chem output
C      -0.977030      0.384430     -0.045765
C      -1.068772     -1.162579      0.038674
C       0.298059     -0.804655      0.115618
C       1.568829     -0.685833      0.252289
C       2.025983      0.650245      0.319298
O       1.272388      1.549794      0.785195
H      -1.527684      0.866403      0.759600
H       0.215372      1.075377      0.498918
H      -1.197876      0.784131     -1.028387
H      -1.397481     -1.655479     -0.871210
H      -1.537835     -1.565856      0.931291
H       3.002222      0.957944     -0.058336
