10
Extracted from Q-Chem output
O      -0.620870      0.879132     -0.157218
C      -1.084893     -0.247229     -0.729440
N      -0.675213     -1.388706     -0.409663
C       0.386329      0.706293      0.823329
C       1.703608      0.458810      0.222639
N       2.746445      0.299222     -0.224760
H      -1.838157      0.009572     -1.474135
H      -1.139285     -2.113426     -0.943109
H       0.424229      1.640187      1.381475
H       0.143442     -0.120652      1.492116
