16
Extracted from Q-Chem output
C       1.339677      0.700804     -0.047372
C      -0.033390      0.017800     -0.009069
C       0.000288     -1.195594      0.929396
C      -1.133341      0.998386      0.393719
N      -1.106855     -0.428610     -2.334161
C      -0.311584     -0.487657     -1.376635
O       0.325443     -1.322110     -2.161726
H       2.111261      0.009876     -0.389031
H       1.602364      1.041855      0.955402
H       1.332527      1.564870     -0.713576
H       0.249072     -0.864890      1.939257
H       0.750328     -1.920179      0.610316
H      -0.968432     -1.696744      0.960664
H      -0.939227      1.376622      1.398851
H      -1.174769      1.849722     -0.287706
H      -2.111512      0.514503      0.395814
