16
Extracted from Q-Chem output
C       1.388022      0.688925     -0.136363
C       0.054246     -0.040651      0.012245
C       0.149404     -1.164968      1.039136
C      -1.122124      0.912488      0.264759
N      -1.478443     -0.072473     -1.815459
C      -0.381605     -0.578759     -1.322098
O       0.074338     -1.418277     -2.099179
H       2.165300     -0.005531     -0.458366
H       1.689295      1.124314      0.818844
H       1.320175      1.489020     -0.875713
H       0.415250     -0.762687      2.019058
H       0.915118     -1.883637      0.743175
H      -0.797942     -1.699399      1.129533
H      -1.797392      0.586507      1.053823
H      -0.836891      1.955671      0.395382
H      -1.783647      0.932890     -0.677356
