12
Extracted from Q-Chem output
C      -1.649671     -0.605051      0.066089
C      -0.487891      0.781234     -0.672125
C       0.559755      1.374603      0.028411
N       1.532306      0.435229      0.227379
C       1.112717     -0.742428     -0.240219
N      -0.086340     -0.581906     -0.814184
H      -1.949035      0.089865      0.845186
H      -1.442137     -1.580871      0.504499
H      -2.377719     -0.662729     -0.728101
H       0.701702      2.389681      0.361755
H       2.458352      0.607181      0.585115
H       1.688293     -1.652847     -0.179943
