11
Extracted from Q-Chem output
C      -0.913924     -0.690385     -0.271689
N      -0.764758     -0.075550      1.049435
C       0.465859      0.511104      0.796429
N       1.270077      1.104947      1.557447
C       0.365814      0.065975     -0.648752
N       1.096060      0.265569     -1.643024
H      -1.819028     -0.399769     -0.808734
H      -0.793250     -1.777485     -0.297389
H       0.741354     -0.200926     -2.476244
H      -1.076522     -0.440206      1.932558
H       2.076810      1.421800      1.027843
