10
Extracted from Q-Chem output
O      -1.182165      1.461996     -0.635858
C      -1.401535      0.382188     -0.198918
N      -0.445648     -0.366203      0.551444
C       1.113848     -0.086399      0.442515
C       1.517213      0.232601     -0.871058
N       1.862790      0.527657     -1.932186
H      -2.361248     -0.151821     -0.286776
H      -0.712935     -1.324855      0.740410
H      -0.007076      0.256663      1.346728
H       1.581038     -0.951071      0.894008
