11
smiles: [C:5](=[O:6])([H:7])[H:11].[N:1]#[C:2][H:8].[O:3]=[C:4]([H:9])[H:10]
N        2.87771200       1.14386900      -0.36401600
C        2.14658400       0.33661100      -0.71297900
O       -0.40856800      -1.24117200      -1.13067400
C       -0.92494400      -1.69364900      -0.15161200
C       -0.91939400       1.40248200       0.68459200
O       -1.26290600       0.46690200       1.34537100
H       -0.84802400       2.42313700       1.10752800
H        1.46278600      -0.41690900      -1.03838900
H       -0.33553200      -1.99323300       0.73606100
H       -2.02024700      -1.83696900      -0.08015400
H       -0.65485100       1.29753700      -0.38533900
