11
Extracted from Q-Chem output
N       1.522821      0.883126      0.029642
C       1.684427      0.013506     -0.749456
O       0.273857     -1.145988     -0.925999
C      -0.576245     -0.988664     -0.002326
C      -1.040962      0.894442      0.588998
O      -1.523324      0.957447      1.677465
H       0.219611      0.631076      0.421890
H       2.307912     -0.473810     -1.473909
H      -0.375011     -1.357157      1.011478
H      -1.630952     -0.959870     -0.302051
H      -1.397138      1.506767     -0.268009
