13
Extracted from Q-Chem output
C      -1.590015     -0.271119      0.801535
C      -0.461638     -0.676001     -0.074720
C       0.694623      0.388753     -1.578574
N       0.621512      0.145430     -0.254448
C       1.591915      0.429489      0.710987
O       2.614902      0.998738      0.471299
H      -1.220524      0.210757      1.713121
H      -2.202171     -1.128883      1.079876
H      -2.246919      0.459825      0.311853
H      -0.500842     -1.552561     -0.702277
H       1.629568      0.258650     -2.109724
H      -0.182394      0.781242     -2.064438
H       1.311149      0.024458      1.697572
