14
Extracted from Q-Chem output
C      -1.757314      0.535400      0.311005
C      -0.417139      0.039051     -0.118954
C       0.585019     -0.733830      0.740777
C       1.707102     -0.111885     -0.123486
C       0.681913      0.749234     -0.863045
O      -0.366875     -0.562075     -1.418050
H      -1.664795      1.133174      1.218913
H      -2.432055     -0.298932      0.515586
H      -2.195082      1.156701     -0.471060
H       0.606559     -0.373642      1.768958
H       0.466911     -1.817040      0.740240
H       2.384942      0.534076      0.438433
H       2.302202     -0.773356     -0.751347
H      -0.002064      0.318543     -1.996467
