11
Extracted from Q-Chem output
C      -1.856061      0.010828      0.039839
N      -0.476812     -0.516550     -0.164320
C       0.539404      0.508298      0.118991
C       1.802659      0.162996      0.170490
N       2.951930     -0.178954      0.328445
N      -0.230999     -1.640659     -0.511097
H      -2.534908     -0.802852     -0.193827
H      -1.972346      0.331692      1.075758
H      -2.022901      0.858998     -0.625797
H       0.227123      1.530152      0.272665
H       3.544973     -0.203066     -0.496124
