16
Extracted from Q-Chem output
C      -2.334706     -0.393509      0.126884
C      -1.579794     -0.461473     -1.059974
O       0.060555     -0.515703     -0.165391
C       0.848861      0.654698     -0.209421
C       1.958196      0.540929      0.817088
O       2.771132     -0.581588      0.570447
H      -2.847813     -1.285066      0.465130
H      -2.791599      0.551815      0.393785
H      -0.977176     -0.432972      0.521113
H      -1.399011      0.426240     -1.657014
H      -1.450536     -1.397558     -1.588497
H       0.235876      1.546944     -0.004077
H       1.283172      0.751830     -1.209621
H       1.512429      0.492891      1.820428
H       2.600083      1.423630      0.774909
H       2.175050     -1.321095      0.417747
