13
Extracted from Q-Chem output
C       0.532058      0.551723      1.131846
O       1.469349     -0.397847      0.615742
C       0.910824     -1.102664     -0.510381
C      -1.600567     -0.211200     -0.676101
O      -1.692601      1.018036     -0.060394
C      -0.226737      1.032688     -0.095230
C      -0.273368     -0.267383     -0.835425
H       1.110665      1.316141      1.648716
H      -0.172046      0.087413      1.833112
H       0.646765     -2.126929     -0.230446
H      -2.481818     -0.814814     -0.848778
H       0.136414      1.945615     -0.563829
H       1.676972     -1.134498     -1.287315
