18
Extracted from Q-Chem output
C      -2.426589      0.025886     -0.806492
C      -1.378081     -0.559922      0.131693
C       0.030512     -0.185609     -0.270199
C       1.171854     -0.148278      0.776379
C       2.553068     -0.640101      0.421760
C       0.636023      1.072078      0.184316
N       0.726518      2.323055      0.160018
H      -3.434699     -0.264038     -0.505522
H      -2.379834      1.117224     -0.810294
H      -2.273258     -0.316651     -1.832468
H      -1.561460     -0.209893      1.151921
H      -1.465618     -1.650483      0.157494
H       0.333642     -0.526057     -1.258913
H       0.059169      2.714716     -0.505081
H       0.850260     -0.356167      1.794388
H       2.624407     -1.724096      0.532755
H       2.802041     -0.386629     -0.610692
H       3.305279     -0.179592      1.064082
