18
Extracted from Q-Chem output
C      -2.435700     -0.133676     -0.911419
C      -1.351216     -0.390130      0.127637
C       0.003720      0.107115     -0.315200
C       1.160119     -0.015879      0.757319
C       2.464914     -0.647388      0.325513
C       0.931938      1.371864      0.532584
N       0.826203      2.577603      0.390704
H      -3.402544     -0.513148     -0.576234
H      -2.543327      0.935057     -1.110123
H      -2.194866     -0.623592     -1.857800
H      -1.629796      0.101718      1.066634
H      -1.309921     -1.465174      0.351401
H       0.349757     -0.239495     -1.287840
H       0.068160      1.771389     -0.349464
H       0.788379     -0.378866      1.715195
H       2.324517     -1.721300      0.191592
H       2.806487     -0.225136     -0.620439
H       3.245726     -0.489276      1.070235
