19
Extracted from Q-Chem output
C       2.624127      0.817210     -0.035342
C       2.678446     -0.249345     -0.886687
O       0.950152     -1.502834     -0.554723
C       0.078773     -1.036003      0.215554
C      -1.176633     -0.421194     -0.379549
O      -1.937419      0.170092      0.636505
C      -3.177826      0.644752      0.184326
H       1.343825      0.539724      0.618319
H       2.332876      1.793436     -0.407973
H       3.212383      0.812705      0.875888
H       3.235272     -1.139328     -0.637011
H       2.344464     -0.166263     -1.910307
H      -0.075804     -1.502448      1.204090
H       0.570318      0.166177      0.867322
H      -0.899929      0.304345     -1.157765
H      -1.739766     -1.231067     -0.867906
H      -3.790914     -0.167564     -0.227646
H      -3.055091      1.414204     -0.589011
H      -3.693519      1.080120      1.039022
