17
Extracted from Q-Chem output
C       2.130047      0.038941     -0.261460
C       0.690308     -0.082609      0.103505
C       0.119050     -1.247975      0.593485
C      -1.220916     -1.287802      0.912646
C      -1.191662      0.400103     -1.089122
C      -0.248450      1.030596     -0.129881
O      -0.797101      1.585566      1.078967
H       2.671354      0.580169      0.520911
H       2.253424      0.607335     -1.185694
H       2.600515     -0.937617     -0.380296
H       0.684750     -2.173954      0.537236
H      -1.730681     -0.422694      1.298974
H      -1.736760     -2.239750      0.976511
H      -1.097190     -0.629481     -1.372205
H      -1.678285      1.042624     -1.824032
H       0.266329      1.858199     -0.641654
H      -1.678547      1.907579      0.868490
