10
Extracted from Q-Chem output
N      -1.855437      0.616472      0.362608
C      -0.698816      0.150453      0.199155
N      -0.262687     -1.189995      0.122379
O       1.111925     -1.176929     -0.220395
C       1.550969      0.114726     -0.184318
O       2.682346      0.431097     -0.363083
N       0.455889      0.891177      0.095101
H      -0.734901     -1.729328     -0.592853
H      -2.555663     -0.111515      0.447082
H       0.488792      1.891768      0.168151
