10
Extracted from Q-Chem output
N      -1.863564     -0.042742     -0.060374
C      -0.570915     -0.013523      0.166976
N      -0.134875     -1.260055      0.084535
O       1.233380     -1.195147     -0.290511
C       1.625175      0.097639     -0.137553
O       2.728332      0.503721     -0.304294
N       0.485425      0.833475      0.231062
H      -1.367447     -1.373378     -0.294904
H      -2.495484      0.561208      0.446188
H       0.466055      1.835129      0.171011
