14
Extracted from Q-Chem output
C       0.773783      0.238005     -0.529932
C       0.458467      1.027769      0.737944
C      -1.009620      1.277409      0.963137
O      -1.868843      1.101475      0.144576
C      -0.495018     -1.874361     -0.979562
C       0.487224     -1.226675     -0.374073
H       0.191195      0.643108     -1.359148
H       1.830480      0.376290     -0.774769
H       0.860258      0.539273      1.632480
H       0.929426      2.018800      0.715682
H      -1.267985      1.677895      1.966345
H      -1.178045     -1.361402     -1.647669
H      -0.657551     -2.933407     -0.819400
H       1.141717     -1.771638      0.304146
