14
Extracted from Q-Chem output
C       1.076608      0.289447     -0.713716
C       0.565379      0.625787      0.613858
C      -0.827089      1.007397      0.830159
O      -1.693965      0.783850     -0.098120
C      -0.712225     -1.434224     -0.691007
C       0.536021     -1.064122     -0.313923
H       0.500794      0.718551     -1.528580
H       2.150610      0.361439     -0.851829
H       1.247493      0.656468      1.460477
H      -0.406810      2.099695      0.831725
H      -1.120294      0.861354      1.888838
H      -1.251342     -0.920995     -1.468996
H      -1.151418     -2.342329     -0.293335
H       1.131385     -1.695459      0.334544
