14
Extracted from Q-Chem output
N       1.859779     -1.675174      0.079194
C       1.098794     -0.693531     -0.116828
O       1.397493      0.338157     -0.974172
C       0.380093      1.329617     -0.920602
C      -0.754104      0.670857     -0.154528
C      -1.405103     -0.513372     -0.901361
C      -0.222604     -0.475177      0.590223
H       2.707293     -1.589683     -0.480038
H       0.127071      1.622556     -1.941478
H       0.751416      2.206141     -0.383398
H      -1.463508      1.334058      0.327259
H      -1.054870     -0.606991     -1.925491
H      -2.482416     -0.531465     -0.777285
H      -1.089281     -1.461404     -0.340594
