10
smiles: [C:1](#[C:2][C:3]#[C:4][H:9])[H:8].[O-:5][N+:6]#[C:7][H:10]
C        3.44774600       1.42311500       0.02518300
C        2.25232000       1.33060000       0.05103600
C        0.87983900       1.22278600       0.07949400
C       -0.31537200       1.12682600       0.10307900
O       -3.18037600      -0.39373000       0.01639600
N       -2.62213600      -1.44419800      -0.06403800
C       -2.08318000      -2.45813700      -0.14154300
H        4.50890900       1.50601200       0.00172400
H       -1.37637200       1.04135400       0.12380800
H       -1.58487000      -3.39313900      -0.21304600
