13
Extracted from Q-Chem output
C      -0.289527      1.831568      0.169980
C      -0.322314     -1.469181     -1.349083
O       0.585354     -1.720991     -0.280461
C       0.727807     -0.577682      0.416519
N       1.474721     -0.495479      1.424995
C      -0.146774      0.422247     -0.275697
N      -0.734538     -0.093615     -1.273260
H      -0.680896      1.869108      1.189129
H       0.682250      2.330239      0.172111
H      -0.965192      2.367168     -0.492553
H       0.178988     -1.664369     -2.300083
H      -1.186013     -2.131169     -1.250400
H       1.448511      0.442067      1.811534
