14
Extracted from Q-Chem output
C      -1.373342     -1.012221     -0.120977
C      -0.468880      0.633120     -0.405417
C       0.059314      1.364805      0.735216
C       1.000960      0.667255     -0.201470
C       1.749823     -0.503087      0.327292
O       2.814316     -0.879151     -0.081731
H      -1.464426     -1.433265      0.887993
H      -2.347159     -0.879318     -0.580056
H      -0.704039     -1.629461     -0.707055
H      -0.997617      0.930647     -1.300172
H      -1.038941      0.072641      0.532764
H      -0.060242      2.440025      0.737014
H       1.519025      1.177802     -1.013249
H       1.252969     -0.999896      1.190691
