11
Extracted from Q-Chem output
C       2.908734     -1.110498      0.335335
C       1.829994     -0.980201     -0.168981
C       0.557618     -0.836011     -0.800516
C      -0.518641     -0.444974     -0.175239
C      -1.562740     -0.033127      0.485052
N      -1.889263      1.346798      0.668492
N      -1.587303      2.073902     -0.279509
H       3.864194     -1.220087      0.791383
H       0.492429     -1.064665     -1.860660
H      -2.204574     -0.716207      1.027447
H      -1.835983      3.031039     -0.001459
