19
Extracted from Q-Chem output
C      -1.871200     -0.880774     -0.568074
C      -0.709867     -0.038839     -0.043878
C      -1.206374      1.155061      0.768231
C       0.190752     -0.889250      0.813046
O       1.106938     -1.791521      0.143284
C       1.637114     -0.846396      0.955352
C       2.311369      0.709550     -0.334719
H      -2.517837     -0.285027     -1.215229
H      -1.509415     -1.735556     -1.141607
H      -2.482394     -1.259106      0.256158
H      -0.134922      0.322752     -0.897418
H      -1.770909      0.822493      1.643590
H      -1.866709      1.782408      0.167126
H      -0.378551      1.772429      1.121587
H      -0.329168     -1.365588      1.646246
H       2.555041     -0.178398      0.785051
H       2.119875      0.209900     -1.278546
H       3.359004      1.007079     -0.251941
H       1.653102      1.549697     -0.138526
