12
Extracted from Q-Chem output
O       1.599979     -0.986828      0.845718
C       0.629205     -0.449226      0.158444
C      -0.887499     -0.627294      0.397878
C      -1.065128      0.799083     -0.122864
O      -2.015093      1.450081     -0.425509
C       0.441956      1.050526     -0.165636
H       1.380155     -1.265006     -0.506417
H       0.727542     -0.971817     -1.159772
H      -1.064089     -0.699846      1.474599
H      -1.421171     -1.426997     -0.112373
H       0.864700      1.460474     -1.080922
H       0.786015      1.636913      0.690796
