13
smiles: [C:1]([C:2](=[O:5])[H:9])([H:6])([H:7])[H:8].[C:3](=[C:4]([H:12])[H:13])([H:10])[H:11]
C        1.90281300      -0.13115400      -0.27211700
C        1.22154700       1.01789000       0.40791000
C       -1.62348300      -1.00465200       0.20474300
C       -2.13772900       0.13203300      -0.23217400
O        0.96301700       1.06122500       1.57873700
H        2.82069200       0.22275600      -0.74877900
H        2.13046800      -0.92094200       0.44105600
H        1.25919100      -0.51527300      -1.06784400
H        0.95453000       1.86906000      -0.25412200
H       -1.77027000      -1.93769900      -0.32736600
H       -1.03375400      -1.04975200       1.11324300
H       -1.99095300       1.06509300       0.29991300
H       -2.72744600       0.17709800      -1.14068500
