13
Extracted from Q-Chem output
C       1.695863     -0.271112     -0.071154
C       0.421937      0.519354     -0.164753
C      -1.057239     -0.744786     -0.129673
C      -1.590768      0.437237      0.379675
O       0.151428      1.366519      0.781944
H       2.512147      0.454237     -0.155929
H       1.773088     -0.755587      0.901095
H       1.787890     -1.007371     -0.870823
H       0.192955      0.814031     -1.202678
H      -1.209570     -1.001884     -1.168654
H      -0.856036     -1.560153      0.553598
H      -1.814198      0.562127      1.428789
H      -2.017714      1.182576     -0.280203
