16
Extracted from Q-Chem output
C       2.013083      0.316816     -0.138071
N       0.796336     -0.455425     -0.117195
C       0.250536     -0.894390      1.086089
C      -1.083203     -0.959279      1.063208
C      -1.207398      1.056680     -0.470671
C      -0.292535     -0.034509     -0.955693
C      -1.565026     -0.392262     -0.226627
H       1.861194      1.357096      0.184793
H       2.422811      0.330919     -1.149639
H       2.752579     -0.145505      0.517148
H       0.918365     -1.162816      1.893920
H      -1.713217     -1.372986      1.834819
H      -0.916056      1.650972      0.386486
H      -1.762422      1.583648     -1.235323
H      -0.152483     -0.173951     -2.021208
H      -2.420961     -0.815945     -0.735249
