16
Extracted from Q-Chem output
C       2.548754      0.309169      0.069487
C       1.253905     -0.267553      0.591886
O       0.245660     -0.058458     -0.375838
C      -0.991643     -0.548734      0.014827
C      -1.852862      0.285588      0.914507
C      -2.182564      0.133471     -0.549420
H       3.349931      0.160103      0.795396
H       2.442978      1.379034     -0.115759
H       2.834545     -0.173829     -0.865810
H       1.361679     -1.343604      0.789429
H       0.964664      0.210768      1.537252
H      -1.026915     -1.629975      0.139598
H      -2.477610     -0.210527      1.645576
H      -1.448685      1.239502      1.228052
H      -3.035792     -0.468139     -0.832829
H      -1.986044      0.983185     -1.189256
