16
Extracted from Q-Chem output
C       2.512885      0.350002     -0.022141
C       1.279713     -0.258708      0.602138
O       0.171105      0.012340     -0.231969
C      -1.017040     -0.551191      0.259425
C      -1.757988      0.084053      1.356527
C      -2.229574      0.036126     -0.449079
H       3.387318      0.156830      0.601399
H       2.394651      1.429277     -0.128035
H       2.690602     -0.074609     -1.011053
H       1.400403     -1.345028      0.718678
H       1.105536      0.159653      1.603158
H      -0.968121     -1.641289      0.255658
H      -2.840472      0.544966      0.399468
H      -1.358240      1.111769      1.417036
H      -2.939631     -0.699772     -0.808071
H      -1.929269      0.794408     -1.163985
