18
Extracted from Q-Chem output
C      -2.214981      0.922235      0.115612
C      -1.435021     -0.763540     -0.661121
C      -0.321244     -1.325109      0.068591
C       1.037835     -0.786297     -0.128392
O       1.222425      0.449671      0.581894
C       2.494621      0.999564      0.382066
H      -2.686044      0.767248      1.087743
H      -2.963254      1.087914     -0.655486
H      -1.486040      1.731862      0.144706
H      -1.206509     -0.285120     -1.608490
H      -2.373084     -1.303168     -0.633018
H      -1.155877     -0.124570      0.364389
H      -0.527837     -2.021261      0.868693
H       1.788722     -1.508451      0.218419
H       1.243680     -0.587552     -1.193740
H       2.547020      1.932216      0.943360
H       2.682299      1.214054     -0.679787
H       3.286414      0.326109      0.738422
