8
Extracted from Q-Chem output
N      -1.136756     -0.271232      0.123429
C      -0.242486      0.669234     -0.241891
O      -0.496777      1.790694     -0.608818
C       1.214815      0.185490     -0.155616
O       1.378625     -1.003574      0.330331
H      -2.116436     -0.052334      0.121102
H      -0.822930     -1.170266      0.446181
H       2.317481     -0.402310      0.010323
