12
Extracted from Q-Chem output
C      -1.063811     -0.774713     -0.217326
N      -0.531952      0.043140      0.857763
C       0.336308     -0.958791      0.236599
C       1.312606     -0.163909     -0.559765
N       1.127895      1.086897     -0.510703
C       0.012669      1.330120      0.402309
H      -0.759517      1.924021     -0.092476
H      -1.824258     -1.483384      0.087518
H      -1.214172     -0.319855     -1.192647
H       0.646990     -1.826077      0.806607
H       2.111279     -0.599722     -1.152688
H       0.380361      1.895800      1.261210
