10
Extracted from Q-Chem output
O       1.992753      0.644996      0.401237
C       0.897729      0.228791     -0.108202
C      -0.324534      0.900172      0.131790
C      -0.962960     -0.471227     -0.159446
N       0.411979     -0.974996     -0.497833
H       0.949277      1.174334      0.978783
H      -0.636818      1.833700     -0.314459
H      -1.377683     -0.989090      0.706170
H      -1.644053     -0.528468     -1.007832
H       0.799626     -1.850098     -0.174120
