9
Extracted from Q-Chem output
O      -2.087928     -0.390355      0.102792
C      -0.825693     -0.702975     -0.094257
N       0.058304     -1.431252     -0.342728
C       1.882586      0.016777     -0.116068
N       1.150527      0.914650      0.088477
N      -0.072861      1.234632      0.125941
H      -2.611899     -1.187379     -0.038138
H       2.789753     -0.352657     -0.543856
H      -0.259466      1.940147      0.831310
