14
Extracted from Q-Chem output
O      -1.401497      1.796627      1.383011
C      -0.937687      0.904228      0.692602
C      -1.429806      0.098614     -0.350203
N      -0.168029     -0.619851     -0.762045
C       0.921777      0.434107     -0.702272
C       0.553717      0.392313      0.799815
C       0.356567     -1.115624      0.561851
H      -2.121597      0.345916     -1.139176
H      -0.253684     -1.251200     -1.549809
H       0.678568      1.323564     -1.277990
H       1.901036      0.022013     -0.958778
H       1.177745      0.803948      1.583370
H       1.277776     -1.686808      0.427605
H      -0.396430     -1.645684      1.137421
