15
Extracted from Q-Chem output
N       1.605303     -0.981586      0.579372
C       0.886173      0.254773      0.644624
C       1.152312      1.345751     -0.274506
N       1.345912      2.198481     -1.104688
C      -0.433494      0.380752     -0.169579
C      -1.758375      0.020583      0.405014
C      -1.138646     -0.838265     -0.669231
H       2.535403     -0.909706      0.966880
H       1.663783     -1.322878     -0.370298
H       0.777075      0.605429      1.671207
H       0.189215      1.687049     -1.151052
H      -1.795457     -0.409727      1.401174
H      -2.614227      0.636115      0.154109
H      -1.565788     -0.817080     -1.665178
H      -0.788377     -1.815757     -0.353513
