14
smiles: [C:1]([O:6][H:14])([H:7])([H:8])[H:9].[C:2]1([O:3][H:10])=[C:5]([H:13])[C:4]1([H:11])[H:12]
C       -0.91418700      -0.45784000      -1.87003600
C        0.51361800       0.89156100       1.00863000
O       -0.02480300       2.01870400       0.55276000
C        0.24043600      -0.36234600       1.74223800
C        1.54827700       0.14382700       1.13180900
O        0.27353800      -1.19009400      -1.65510400
H       -1.54738100      -0.42496700      -0.97611900
H       -1.46470300      -0.96775100      -2.65978600
H       -0.71433800       0.56847100      -2.19860700
H       -0.95497700       2.03565800       0.78983200
H        0.10903500      -0.34231800       2.82608500
H       -0.30285000      -1.17336000       1.25295700
H        2.58519200      -0.08550900       0.97914600
H        0.77693700      -0.76277700      -0.96172200
