13
Extracted from Q-Chem output
N      -2.053498      0.395771      0.540168
C      -0.866953      0.701905     -0.230760
C       0.376937      0.330603      0.468948
N       1.443915     -1.354595     -0.132779
C       1.642843      0.135090     -0.197845
N       2.498593      0.878603     -0.628538
H      -2.865414      0.867818      0.170121
H      -2.243393     -0.597072      0.534356
H      -0.770313      1.793164     -0.333942
H      -0.843620      0.310748     -1.256798
H       0.335087      0.316068      1.557985
H       1.266743     -1.824972     -1.011894
H       2.067614     -1.880238      0.468070
