15
Extracted from Q-Chem output
O       1.711083      0.757202      1.372000
C       1.055563      1.107292      0.184048
C       0.629194     -0.078779     -0.661796
C      -0.515191     -0.871183     -0.050658
O      -0.021248     -1.517343      1.117842
C      -1.773068      1.290972      0.566228
C      -1.688655      0.029123      0.286690
H       1.236262      0.017059      1.764630
H       1.736296      1.747152     -0.380968
H       0.160780      1.739723      0.396728
H       1.476482     -0.753277     -0.804886
H       0.309184      0.275999     -1.644087
H      -0.857849     -1.626807     -0.765397
H      -0.746450     -1.935828      1.585879
H      -2.697835     -0.395142      0.355820
