15
Extracted from Q-Chem output
O       2.203574      0.350596      1.135054
C       1.275565      1.050373      0.329167
C       0.495120      0.126695     -0.594904
C      -0.617285     -0.680659      0.095571
O      -0.305914     -1.131444      1.383536
C      -1.857625      0.642764      0.364298
C      -2.333061     -0.402636     -0.134266
H       1.732345     -0.370286      1.561609
H       1.864688      1.742310     -0.274161
H       0.584976      1.647951      0.935198
H       1.205986     -0.585667     -1.024976
H       0.052141      0.688169     -1.417555
H      -0.751410     -1.586238     -0.505985
H      -0.599150     -0.455970      2.003591
H      -2.945622     -1.194364     -0.512701
