17
smiles: [C:1]([N:5]([C:6]([H:12])([H:13])[H:14])[C:7]([H:15])([H:16])[H:17])([H:8])([H:9])[H:10].[N:2](=[C:3]=[O:4])[H:11]
C        1.16142900       0.03726400       1.07394700
N        1.28643600       0.00013500      -2.41244200
C        0.25867700      -0.63124600      -2.46973700
O       -0.74354600      -1.21016800      -2.39487700
N       -0.13521100      -0.04884800       0.44068100
C       -1.00954300      -0.96140700       1.14235500
C       -0.73815000       1.25669500       0.29278900
H        1.10888000       0.44456100       2.10030100
H        1.61808700      -0.95280000       1.12574300
H        1.81870800       0.68245300       0.48808400
H        1.91599000       0.16109100      -3.17652400
H       -1.22304600      -0.63908600       2.17800500
H       -0.55515300      -1.95301100       1.18421000
H       -1.96022600      -1.04595100       0.61272100
H       -0.08523000       1.90357000      -0.29617100
H       -1.69113500       1.17089300      -0.23246000
H       -0.92583200       1.75227800       1.26293100
