17
Extracted from Q-Chem output
C       1.641455      0.187453      0.605412
N       1.312940     -0.312105     -1.361679
C       0.009319     -0.352163     -1.318692
O      -0.883760     -0.599923     -2.111644
N      -0.305454      0.008622      0.083914
C      -0.979757     -1.067003      0.790519
C      -1.023106      1.269458      0.168423
H       1.257783      0.925012      1.310322
H       1.730101     -0.797647      1.042718
H       2.579110      0.534247      0.194574
H       1.748313     -0.507514     -2.256007
H      -1.073270     -0.810715      1.847887
H      -0.399698     -1.984766      0.691306
H      -1.975013     -1.237992      0.369089
H      -0.462970      2.038789     -0.363625
H      -2.013356      1.178066     -0.287189
H      -1.133415      1.561422      1.215087
