8
Extracted from Q-Chem output
O      -0.834758      1.261081     -0.120937
C      -0.539919     -0.064881      0.112869
C       0.903316     -0.445896     -0.730831
C       1.257123     -0.527773      0.461185
H      -0.615272      1.451431     -1.037904
H      -0.664350     -0.227330      1.189843
H      -1.193787     -0.777199     -0.388609
H       1.634290     -0.573006      1.462163
