11
smiles: [H:8][H:9].[O:1]=[C:2]1[N+:3]([H:7])=[C-:4][C:5]([H:10])([H:11])[O:6]1
O        2.90734100       0.27813900      -0.27108500
C        1.73365000       0.38455900      -0.12689100
N        0.89350800      -0.47853300       0.65092400
C       -0.38308000      -0.17982200       0.67652200
C       -0.41428000       1.03519400      -0.19025500
O        0.93056200       1.30985400      -0.63985200
H        1.31216700      -1.26072300       1.13226700
H       -2.96009500      -2.31347100      -0.55985300
H       -2.52404600      -1.90631100      -0.11437000
H       -0.78623000       1.89975100       0.36287900
H       -1.05292200       0.87384900      -1.06103500
