12
Extracted from Q-Chem output
O      -1.947929     -1.041043     -0.407592
C      -0.831275     -0.330659     -0.143480
C       0.489457     -1.030739     -0.173907
C       1.448557      0.073836      0.160321
C       0.760844      1.206520      0.348473
C      -0.672898      0.967390      0.159852
H       0.675379     -1.473580     -1.157362
H       0.515510     -1.848503      0.553190
H       2.518132     -0.056079      0.234333
H       1.183437      2.169052      0.604666
H      -1.453122      1.710636      0.254021
H      -2.713920     -0.465122     -0.351855
