14
Extracted from Q-Chem output
C      -1.844136     -0.298138      0.492742
C      -0.501473      0.360826      0.287132
C      -0.396643      1.760384      0.531818
N      -0.345648      2.891835      0.737624
C       0.587340     -0.319693     -0.115435
O       0.544614     -1.643244     -0.362097
C       1.945545      0.241852     -0.342539
H      -2.583690      0.431920      0.813692
H      -2.219739     -0.749578     -0.430796
H      -1.800227     -1.072835      1.264562
H      -0.340323     -1.986686     -0.207688
H       2.661838     -0.265324      0.306336
H       1.974454      1.310356     -0.145332
H       2.247286      0.056383     -1.375027
