17
Extracted from Q-Chem output
O       2.555945      0.088046     -0.624284
C       1.753887     -0.766822      0.131586
C       0.416169     -1.036452     -0.483866
C      -0.698973     -1.308062      0.245912
C      -1.678792      0.629437      0.196432
C      -0.542635      1.507315      0.081153
O       0.221698      1.389706     -0.934572
H       1.972874      0.833205     -0.853663
H       1.607555     -0.402893      1.161636
H       2.284744     -1.723279      0.212528
H       0.404485     -1.142387     -1.563043
H      -0.623958     -1.382751      1.326710
H      -1.541880     -1.810479     -0.213226
H      -2.281738      0.641942      1.100747
H      -2.174167      0.366448     -0.729510
H      -0.143256      1.875781      1.041030
H      -1.545734      2.189110     -0.078403
