11
Extracted from Q-Chem output
N       1.331161     -1.065990     -0.730510
C       0.426287     -0.335219     -0.138511
C      -0.155117     -1.276653      0.740886
O      -1.172681      0.183764     -0.712301
C      -0.738909      1.381021     -0.204600
O       0.586301      0.980876      0.218387
H       2.169094     -0.525433     -0.943553
H      -0.531738     -2.194175      0.313269
H      -0.166821     -1.120258      1.816104
H      -0.633954      2.171091     -0.958883
H      -1.317811      1.753466      0.650536
