13
Extracted from Q-Chem output
C      -1.450236     -0.519697      0.454494
C      -0.212163     -0.645817     -0.334408
C       0.243995      0.355141     -1.246320
N       0.716830      1.244099     -0.146035
C       1.514752      0.747397      0.779574
O       1.642294     -0.422808      1.161176
H      -1.237688     -0.691589      1.511721
H      -2.130244     -1.320578      0.141026
H      -1.933493      0.446339      0.326659
H       0.338193     -1.569744     -0.231954
H       1.044988      0.044065     -1.916726
H      -0.536063      0.893964     -1.780497
H       2.097814      1.541829      1.273683
