10
Extracted from Q-Chem output
N       1.727838     -0.250540      0.078219
C       0.329275     -0.096821     -0.041425
N      -0.476862     -1.220554     -0.310945
N      -1.702680     -1.048086     -0.246307
N      -0.708731      2.206835      0.036888
C      -0.211964      1.109092      0.081301
H       2.153767     -0.517726     -0.798392
H       1.970520     -0.934808      0.780498
H      -2.136957     -1.943611     -0.487500
H      -1.067652      2.610574      0.896379
