15
Extracted from Q-Chem output
C       2.078785      0.171304     -0.271368
C       0.602685      0.218323     -0.115852
O      -0.151725      1.126300     -0.913548
C      -1.263767      0.846949     -0.032814
C      -1.657228     -0.596805     -0.393830
C      -0.310972     -0.965725      0.206532
C      -0.296455      0.294878      1.060667
H       2.515150      1.156774     -0.102816
H       2.509468     -0.528142      0.446599
H       2.344806     -0.160903     -1.276604
H      -1.976755      1.662165      0.045828
H      -2.480581     -0.954313      0.225296
H      -1.846180     -0.797826     -1.450304
H       0.078203     -1.943182      0.456998
H      -0.145434      0.470204      2.115216
