15
Extracted from Q-Chem output
C       1.858727      0.407186     -0.105868
C       0.417975      0.059971     -0.301043
O      -0.103039      0.560452     -1.534569
C      -0.981391      0.814554     -0.487597
C      -1.730134     -0.507737     -0.308559
C      -0.420258     -1.032498      0.322352
C      -0.390583     -0.060018      1.491725
H       1.992983      1.460959      0.140776
H       2.300740     -0.192829      0.688260
H       2.391245      0.207232     -1.037598
H      -1.273099      1.838349     -0.301702
H      -2.559035     -0.508248      0.390478
H      -2.008864     -0.912569     -1.282608
H      -0.111015     -2.074434      0.388954
H       0.618865     -0.056071      1.942355
