19
Extracted from Q-Chem output
C       2.337255      0.445055     -0.600506
C       1.113283     -0.459178     -0.675949
C       0.177811     -0.294895      0.514483
C      -0.444159      1.094148      0.687816
C      -2.111235     -0.046009      1.025493
C      -2.156297     -0.520377     -0.393068
C      -1.109247     -1.076422      0.515865
H       2.993852      0.299656     -1.459408
H       2.920599      0.244596      0.301732
H       2.053470      1.500838     -0.580435
H       0.557661     -0.258763     -1.597583
H       1.425096     -1.506914     -0.728854
H       0.729836     -0.531949      1.429195
H      -0.623333      1.665132     -0.220567
H      -0.011387      1.717943      1.469412
H      -1.627311      1.016774      1.320033
H      -3.010035     -1.164162     -0.575036
H      -1.895009      0.101469     -1.241220
H      -1.153217     -2.111185      0.836438
