11
Extracted from Q-Chem output
C      -1.485867     -0.098472      0.028512
C       0.006189     -0.020282      0.004174
C       0.932963     -1.107580      0.163731
O       2.150082     -0.987622      0.137627
N       1.981669      1.453398     -0.238615
C       0.824635      1.058192     -0.167736
H      -1.782058     -1.143824      0.129208
H      -1.923599      0.442078      0.870402
H      -1.939650      0.276466     -0.890932
H       0.471667     -2.098527      0.314713
H       0.763971      2.226172     -0.351086
