12
Extracted from Q-Chem output
O       0.055566     -0.395476      1.752322
C      -0.095389     -0.629645      0.465284
C      -0.032186      0.378141     -0.513656
C       0.271866      0.681128      2.410118
C      -0.179932      0.190773     -1.846442
C      -0.421915     -1.091480     -2.407642
N      -0.617418     -2.136598     -2.850089
H      -0.268765     -1.672831      0.255077
H       0.151117      1.397239     -0.190527
H       0.362052      1.636271      1.912380
H       0.352388      0.552846      3.476946
H      -0.114578      1.022254     -2.533350
