16
Extracted from Q-Chem output
C       0.846818     -0.850654      0.639025
C       0.624372      0.281592     -0.351821
C      -0.224109     -0.095769     -1.541290
C      -0.758133     -1.281311     -1.788620
C       0.043129      1.521745      0.301394
C      -0.324622      1.588720      1.551662
N      -0.559285      1.682973      2.747001
H      -0.097284     -1.194334      1.068618
H       1.326301     -1.701850      0.154165
H       1.488938     -0.523287      1.457508
H       1.604878      0.575090     -0.750433
H      -0.399076      0.711571     -2.249413
H      -0.626545     -2.127398     -1.124617
H      -1.508148      1.436698      3.017294
H      -1.355206     -1.447716     -2.676733
H      -0.100094      2.411460     -0.301334
