15
Extracted from Q-Chem output
C       2.298307      0.162831      0.145932
N       0.913236     -0.170654     -0.147832
C       0.369234     -1.498248      0.267223
C      -0.980595     -1.225495      0.289036
C      -1.270881      0.152414      0.067657
N      -2.528090      0.722044      0.146828
C      -0.090160      0.787027     -0.208563
H       2.889575     -0.745557      0.045941
H       2.655080      0.927006     -0.545286
H       2.374715      0.525714      1.170047
H       0.913376     -1.092505     -0.916724
H      -1.734472     -1.982544      0.460667
H      -3.291924      0.088586     -0.013506
H      -2.647701      1.600503     -0.326475
H       0.120181      1.811146     -0.474219
