14
Extracted from Q-Chem output
C      -1.165375     -0.311637      0.593503
C      -0.469381      1.013822      0.366423
C       1.019799      0.775301     -0.013684
C       1.523431     -0.656659     -0.034501
C      -0.233355     -0.878792     -0.534417
C      -0.046497      0.590824     -1.015638
H      -2.191508     -0.281104      0.226101
H      -1.134939     -0.790710      1.577326
H      -0.816748      1.986513      0.686685
H       1.679839      1.631124      0.009323
H       0.523924     -1.221227      0.416472
H       1.885149     -1.115412      0.911328
H      -0.484033     -1.748544     -1.128813
H      -0.194299      0.995490     -2.006148
