10
Extracted from Q-Chem output
N      -1.773277      0.243257     -0.026644
C      -0.408716      0.012286     -0.066145
C       0.653781      0.875373      0.259695
N       1.787174      0.199457      0.136703
N       1.401684     -0.991894     -0.234850
N       0.096239     -1.169425     -0.380885
H      -2.303768     -0.470775     -0.499631
H      -2.047470      1.167732     -0.313393
H       0.644008      1.907041      0.570067
H       2.054119     -1.736029     -0.401387
