10
Extracted from Q-Chem output
N      -1.739653      0.041207      0.019799
C      -0.378581     -0.055752     -0.130180
C       0.625070      0.852585      0.203848
N       1.807386      0.279894      0.015427
N       1.630729     -0.896195     -0.518188
N       0.203761     -1.151959     -0.620680
H      -2.273626     -0.596748     -0.545604
H      -2.115617      0.972837      0.039728
H       0.537420      1.860155      0.580024
H       1.002223     -1.752008      0.110788
