9
Extracted from Q-Chem output
O      -0.015882     -1.469492      0.248210
C       1.199031     -0.815861      0.292796
C       0.831388      0.547585      0.062628
C      -0.609773      0.664317     -0.008434
C      -1.041129     -0.596606      0.127664
H       1.330596     -0.162068     -0.872459
H       1.546980      1.355622      0.128175
H      -1.203695      1.552670     -0.140604
H      -2.032645     -1.023168      0.145743
