10
Extracted from Q-Chem output
O       2.610102      0.878597      0.494294
C       1.912380      0.120072     -0.112021
C       0.428908      0.042877      0.070759
N      -0.255656     -0.728957     -0.668710
C      -1.621560     -0.683424     -0.365130
C      -2.186587      0.008779      0.608994
O      -0.131548      0.758425      1.071581
H       2.289974     -0.588071     -0.869082
H      -2.309212     -1.267225     -0.975922
H      -0.707571      1.475084      0.752945
