12
Extracted from Q-Chem output
C       1.947831      0.652658      0.287448
N       0.773191      1.102519      0.079846
C      -0.321822      0.343819     -0.069410
N      -0.299801     -1.138326     -0.008647
C      -1.633768      0.737480     -0.294821
O      -2.547988     -0.114183     -0.409148
H       2.190573     -0.414081      0.366807
H       2.769192      1.351861      0.397309
H      -0.010788     -1.515396      0.891619
H      -1.350282     -1.276774     -0.170167
H       0.247512     -1.578432     -0.745386
H      -1.837355      1.812057     -0.369296
