19
Extracted from Q-Chem output
C       2.046774     -0.876331     -0.057908
C       1.308461      0.234897      0.654516
C       0.507540      1.144519     -0.004165
C      -0.267526      0.881970     -1.257897
C      -1.398613      0.392762     -0.437993
C      -1.495501     -0.895420      0.059356
O      -2.282733      1.372047     -0.083178
H       2.435980     -1.605698      0.653006
H       2.887056     -0.478511     -0.631769
H       1.399182     -1.414200     -0.752738
H       1.803275      0.619452      1.542476
H       0.345720     -0.654518      1.401431
H       0.212894      2.040375      0.529179
H       0.155731      0.114463     -1.901610
H      -0.511275      1.771467     -1.834043
H      -0.490504     -0.985096      1.151220
H      -1.036674     -1.690489     -0.516396
H      -2.419756     -1.181772      0.552912
H      -2.850167      1.051326      0.621477
