14
Extracted from Q-Chem output
C      -1.051987      1.782051      0.099795
C      -0.912217     -2.619516      0.614021
O      -0.146700     -2.162009     -0.317292
C       0.966843     -1.282373     -0.052517
C       0.589963      0.142568     -0.359449
N       1.311094      0.840304     -1.121466
O      -0.527459      0.482813      0.304970
H      -1.968223      1.831493      0.681578
H      -1.282007      1.947816     -0.955828
H      -0.354972      2.547498      0.451635
H      -0.506369     -2.239026      1.591086
H       1.784574     -1.580161     -0.702166
H       1.245205     -1.380277      1.000730
H       0.988728      1.798746     -1.218419
