14
smiles: [C:1]([H:7])([H:8])([H:9])[H:10].[C:2]1[C:3]([H:11])([H:12])[C@@:4]2([H:13])[O:5][C@@:6]12[H:14]
C        2.37648800       0.73128200       0.43585100
C       -1.21149300       0.35055400      -1.09872500
C       -0.66247300      -1.07707600      -0.92258600
C       -1.67537300      -0.86866600       0.09850500
O       -1.17207200      -0.18113600       1.20810900
C       -1.43893600       0.77507500       0.20029900
H        1.59650900       0.46546100       1.14759000
H        3.03865800       1.47112500       0.88315200
H        2.94942400      -0.15736400       0.17524000
H        1.92287000       1.14692700      -0.46258600
H        0.33697800      -1.17485700      -0.50527100
H       -0.86826200      -1.73178400      -1.75947200
H       -2.69873700      -1.21489100       0.13381700
H       -2.00461900       1.64381800       0.51998500
