14
Extracted from Q-Chem output
C       1.828695      0.578824      0.366022
C      -0.060123      0.476978     -0.732674
C      -0.393114     -1.020493     -0.777803
C      -1.624259     -0.611166      0.019143
O      -1.182051     -0.273136      1.305496
C      -1.075790      0.748968      0.290073
H       1.339349      0.055906      1.178334
H       2.186879      1.557180      0.682235
H       2.615058     -0.020876     -0.086831
H       1.163658      0.908499     -0.615334
H       0.227254     -1.725697     -0.223699
H      -0.551188     -1.376248     -1.795274
H      -2.662012     -0.884657     -0.123027
H      -1.578120      1.678770      0.516585
