16
Extracted from Q-Chem output
C      -1.045305      0.795352      0.845959
C      -0.553122     -0.565030      0.490923
O      -1.769876     -1.036156     -0.911553
C       0.574227     -0.814598     -0.339892
C       1.375306      0.317021     -0.896893
O       2.114873      0.953188      0.148306
H      -2.063363      0.767553      1.228306
H      -0.377486      1.196229      1.613388
H      -1.006047      1.466157     -0.010411
H      -0.837826     -1.355046      1.178442
H      -2.245648     -1.866711     -0.797047
H      -0.537440     -1.151034     -1.111898
H       1.133445     -1.714966     -0.102517
H       0.722668      1.049147     -1.389911
H       2.059838     -0.069878     -1.660116
H       2.630781      1.665866     -0.232977
