15
Extracted from Q-Chem output
C       0.562904      0.958644      0.351273
C       1.353038     -0.169530     -0.297997
C       0.838096     -1.568124     -0.407224
O      -1.154409     -0.804929      1.841515
C      -1.649777     -0.162635      0.955692
C      -0.939911      0.883342      0.142202
C       0.873500     -0.907928     -1.513054
H       0.775024      0.966171      1.424065
H       0.926546      1.910395     -0.047461
H       2.429112     -0.035325     -0.172576
H       0.607923     -2.469561      0.132582
H      -1.419424      1.835589      0.400519
H      -2.721428     -0.304190      0.699195
H      -1.196872      0.710666     -0.909453
H       0.701246     -0.875769     -2.575169
