15
Extracted from Q-Chem output
C       0.739674      1.140655      0.243281
C       1.363060     -0.200003     -0.111828
C       0.379227     -1.294689      0.204678
O      -0.630660     -1.048394      1.150890
C      -1.457840     -0.018756      0.610140
C      -0.577744      0.661414     -0.423569
C       0.198191     -0.522590     -1.044049
H       0.686600      1.408488      1.301781
H       1.199024      1.954986     -0.316505
H       2.417052     -0.403151     -0.252775
H       0.723667     -2.319565      0.190595
H      -1.755601      0.644657      1.424980
H      -2.356074     -0.456074      0.155607
H      -1.091809      1.359180     -1.079976
H       0.163234     -0.906159     -2.053251
