14
Extracted from Q-Chem output
C      -1.753893     -0.532947     -0.037058
C      -0.801687     -0.106214     -1.108048
O       0.812298      0.969035      2.284480
C       1.252044      0.976284      1.167945
C       1.304976     -0.231594      0.264607
C       0.515430      0.024792     -0.996015
H      -2.516900      0.233729      0.118271
H      -1.263958     -0.707318      0.920004
H      -2.278428     -1.445675     -0.331526
H      -1.245208      0.113274     -2.075689
H       1.634761      1.917362      0.720128
H       2.352855     -0.415486      0.009963
H       0.934776     -1.093533      0.819601
H       1.074814      0.360692     -1.862966
