14
Extracted from Q-Chem output
C      -1.684023     -0.597430      0.204989
C      -0.693106      0.272297     -0.535198
O      -0.144320      1.345807      0.533386
C       1.081362      0.969954      0.626854
C       1.445026     -0.388145      0.207148
C       0.568342     -0.299615     -1.018495
H      -2.420623      0.000415      0.743811
H      -1.186764     -1.265198      0.908723
H      -2.210441     -1.213826     -0.524506
H      -1.192514      0.930898     -1.243769
H       1.767647      1.715873      1.029436
H       2.511858     -0.482637      0.012978
H       1.158804     -1.150336      0.945691
H       1.003144      0.165938     -1.897454
