11
Extracted from Q-Chem output
O       1.627908     -1.215727     -0.066504
C       0.763944     -0.411019     -0.042896
O      -1.204061     -1.919162     -0.640687
C      -0.874695     -0.805111     -0.212810
C      -1.414293      0.508910     -0.461116
C      -0.467787      1.543861     -0.179473
C       0.776934      1.057653      0.018679
H      -1.128442     -0.510315      0.912864
H      -2.417207      0.674270     -0.835699
H      -0.742077      2.585300     -0.075828
H       1.613518      1.597700      0.442583
