15
Extracted from Q-Chem output
C      -0.856916     -1.549496      0.093531
N      -0.402462      0.082381      0.897153
C       0.730381     -0.774448      0.866894
C       1.655082     -0.302197     -0.058069
C       1.067840      0.814055     -0.655259
C      -0.183396      0.991032     -0.066186
N      -1.206783      1.875169     -0.428376
H      -1.902850     -1.337500      0.290727
H      -0.603814     -1.422905     -0.953490
H      -0.611532     -2.542789      0.462998
H       0.911990     -1.427583      1.706297
H       2.624248     -0.725453     -0.271720
H       1.495472      1.427101     -1.436572
H      -1.769394      2.145574      0.363792
H      -0.874659      2.687762     -0.922218
