10
Extracted from Q-Chem output
O      -1.648685     -0.194030      1.145892
C      -0.714129      0.193874      0.324482
C      -0.443949     -0.922400     -0.580469
C       0.776449      0.105032      0.671062
C       1.938937     -0.204162      0.785123
C      -0.929169      1.500075     -0.361777
N      -1.133838      2.487860     -0.906252
H      -0.440383     -0.866973     -1.669004
H      -0.384187     -1.878703     -0.078580
H       2.971479     -0.431191      0.926039
