16
Extracted from Q-Chem output
C       2.020593      0.435709     -0.124647
O       0.823839      0.139932     -0.844808
C      -0.292383     -0.076820     -0.204850
C      -1.377721     -0.482888     -1.150385
C      -0.275254     -0.719049      1.147759
C      -0.498943      1.962718      0.622102
N      -1.584669      1.796207      0.215758
H       1.824844      1.296836      0.519012
H       2.343692     -0.428795      0.456163
H       2.763052      0.673235     -0.880500
H      -1.130334     -1.494449     -1.491052
H      -1.402986      0.181351     -2.009421
H      -2.345218     -0.485212     -0.660613
H      -1.269369     -0.679971      1.582642
H       0.425747     -0.250152      1.830216
H       0.006526     -1.768316      0.995155
