12
Extracted from Q-Chem output
O      -2.512374      0.689604     -0.162794
C      -1.539723     -0.174460      0.348301
C      -0.225637     -0.035529     -0.317004
N       0.345134      0.562056     -1.240819
O       1.961354      1.110965      1.184318
C       2.162569      0.129601      0.520950
C       1.168960     -0.438910     -0.427857
H      -2.515589      0.636122     -1.121159
H      -1.410247      0.059599      1.407068
H      -1.834174     -1.231548      0.284387
H       3.122452     -0.420526      0.589387
H       1.446474     -1.356930     -0.937945
