12
Extracted from Q-Chem output
O      -2.598450      0.498230     -0.324025
C      -1.543577     -0.255942      0.175689
C      -0.162831      0.328101     -0.083407
N       0.130974      1.378571     -0.653636
O       2.531973      1.312443     -0.091893
C       2.281956      0.172495      0.257133
C       1.038504     -0.481879      0.133638
H      -2.483209      0.625577     -1.268438
H      -1.652832     -0.305205      1.261029
H      -1.532516     -1.285498     -0.205348
H       3.039167     -0.422413      0.804532
H       0.962555     -1.553636     -0.015095
