13
Extracted from Q-Chem output
N      -2.297613     -0.561880      0.083429
C      -0.999812     -0.008905      0.069943
C      -0.581569      1.302796      0.037777
C       0.931594      1.102937     -0.081941
C       1.217667     -0.266763      0.015855
O       2.364343     -0.964922      0.063502
N       0.057411     -0.911233      0.082639
H      -2.936876      0.112302     -0.313548
H      -2.613238     -0.761410      1.024677
H       0.262065      1.314682     -1.064933
H       1.657975      1.896861      0.017868
H       3.105192     -0.358586      0.001936
H      -0.039781     -1.914840      0.051981
