13
Extracted from Q-Chem output
O       1.041859      0.187153     -1.326299
C       0.237476      0.034468     -0.291840
C      -0.987277     -0.830114     -0.544416
O      -1.783307      0.370722     -0.556248
C      -0.756183      1.130054      0.095049
C       1.321315     -1.042755      1.057835
O       1.451273      0.223454      1.122749
H       1.603958      0.956655     -1.183868
H      -1.247073     -1.485982      0.284722
H      -0.987779     -1.365354     -1.494873
H      -0.594177      2.109074     -0.360941
H      -0.923857      1.220451      1.169017
H       1.642641     -1.526198      2.027012
