6
Extracted from Q-Chem output
O       1.960235      0.079731     -0.032580
C       0.785243      0.031830     -0.013125
O       0.002766     -1.080759      0.042593
N      -1.305740     -0.665833      0.046167
N      -1.356134      0.557664     -0.001476
O      -0.086370      1.077368     -0.041580
