6
Extracted from Q-Chem output
O       2.010143      0.146543     -0.037138
C       0.885637     -0.184612     -0.010276
O       0.138368     -1.171970      0.026566
N      -1.564333     -0.522418      0.039074
N      -1.311574      0.609303      0.006952
O      -0.158240      1.123154     -0.025179
