19
Extracted from Q-Chem output
C       1.752867     -0.393393     -0.989560
C       0.915509      0.489756     -0.097042
O       0.493474      1.664789     -0.797229
C      -0.435407      2.185885      0.048424
C      -0.450079     -0.036829      0.377647
C      -0.449564     -0.810376      1.667133
C      -1.316087     -0.626264     -0.702042
H       2.678968      0.109500     -1.269382
H       2.013245     -1.315352     -0.464995
H       1.212488     -0.655597     -1.900041
H       1.492064      0.792798      0.789777
H      -1.247640      2.627323     -0.546350
H      -0.706313      1.344215      0.852822
H       0.054160     -0.261574      2.467415
H       0.075474     -1.767172      1.548669
H      -1.466738     -1.042410      1.988178
H      -0.977296     -1.638514     -0.961050
H      -1.289257     -0.027842     -1.613651
H      -2.351370     -0.712680     -0.367587
