13
smiles: [H:8][H:10].[N:1](=[C:2]1\[C:3](=[O:4])[C:5]([H:11])=[C:6]([H:12])[N:7]1[H:13])\[H:9]
N        1.36389800       1.58484900       1.59537800
C        0.46406600       1.04698600       0.90283600
C        0.52017600      -0.24550700       0.06344500
O        1.50995300      -0.92747200      -0.02553900
C       -0.80959800      -0.37649700      -0.51295400
C       -1.53148700       0.67798600      -0.07875700
N       -0.82672900       1.52412600       0.74192900
H        0.91263300      -3.41669500      -2.24167800
H        2.20714300       1.01447600       1.52958700
H        1.08539500      -2.90042900      -1.73375100
H       -1.14715300      -1.16540100      -1.16320200
H       -2.56377300       0.90627000      -0.30642600
H       -1.17784000       2.35874500       1.17179500
