13
Extracted from Q-Chem output
N       1.747903      0.738705     -0.149619
C       0.497299      0.528877      0.209342
C      -0.004705     -0.797267      0.425281
O       0.824026     -1.759782      0.347262
C      -1.426647     -0.737138      0.280577
C      -1.724713      0.562628     -0.005497
N      -0.589129      1.304690     -0.153193
H       2.014630     -0.523556     -0.974730
H       2.365086      0.267864      0.502690
H       1.671414     -1.325969     -0.571466
H      -2.126073     -1.547643      0.397813
H      -2.694208      1.030440     -0.092588
H      -0.555433      2.302086     -0.252149
