16
Extracted from Q-Chem output
C      -0.552726     -1.051962      0.482951
C      -1.318026      0.143726     -0.095349
C      -0.561051      1.458642     -0.003590
O       0.640529      1.373320     -0.762133
C       1.665969      0.792904     -0.114538
C       0.836178     -1.218001     -0.105771
H      -1.139512     -1.963507      0.330073
H      -0.467490     -0.927311      1.569281
H      -1.551214     -0.043246     -1.148259
H      -2.272558      0.252226      0.427119
H      -0.309894      1.706660      1.033842
H      -1.143056      2.273043     -0.437321
H       1.427926     -0.188793      0.547821
H       2.450832      0.578638     -0.846632
H       1.402791     -2.046169      0.321322
H       0.860087     -1.250505     -1.190581
