17
Extracted from Q-Chem output
O       2.551343      1.684595      1.159942
C       2.345248      0.812087      0.140941
C      -1.233148     -2.310012     -0.483731
C      -1.482880     -1.014874     -0.594437
C      -1.132115      0.023079      0.426770
C      -0.152571      1.078816     -0.112576
C       1.194779      0.516006     -0.452887
H       1.716172      2.083892      1.416306
H       3.276969      0.351439     -0.163413
H      -0.743546     -2.717609      0.394651
H      -1.509464     -3.010576     -1.262309
H      -1.970677     -0.646619     -1.495697
H      -0.588762      1.543458     -1.003598
H      -2.048304      0.529712      0.748379
H      -0.700812     -0.457121      1.308930
H      -0.074383      1.885601      0.623990
H       1.239268     -0.219855     -1.246586
