10
Extracted from Q-Chem output
N      -1.385505     -0.332499     -0.084841
C       0.055440     -0.092370     -0.100794
C       0.826805      1.043122     -0.089790
N       2.090840      0.591418     -0.116226
N       2.061740     -0.731614     -0.141264
N       0.818526     -1.177447     -0.132382
H      -1.863891      0.050944     -0.898843
H      -1.840055      0.017144      0.757579
H       0.579148      2.092581     -0.065761
H      -1.470544     -1.353320     -0.104501
