11
Extracted from Q-Chem output
N      -1.823309     -0.484183      0.158519
C      -0.438478     -0.322090      0.055662
N       0.220376     -1.594179      0.014116
N       1.406096     -1.594008      0.343282
C       0.884667      1.918926     -0.098815
C       0.213551      0.812200     -0.006039
H      -2.354548      0.318298     -0.136985
H      -2.132709     -1.332147     -0.292404
H       1.737287     -2.559232      0.230742
H       1.156242      2.340935     -1.062192
H       1.207768      2.458610      0.786589
