13
Extracted from Q-Chem output
C      -1.228750      0.411985     -0.119994
C      -1.365082     -0.930175      0.608400
C       0.014857     -0.778630      0.278402
C       1.226508     -0.674618     -0.003643
C       2.034527      0.229637     -0.631501
H       0.038239      1.162696     -0.737653
H      -1.444037      1.268783      0.506978
H      -1.726191      0.434270     -1.082147
H      -1.912757     -1.705759      0.080580
H      -1.626364     -0.874902      1.661376
H       0.926086      1.229156     -0.939429
H       2.705089      0.842647     -0.035908
H       2.396299      0.006340     -1.631630
