15
smiles: [C:1]([C:2]([C:3](=[O+:4][C-:5]([H:13])[H:15])[H:12])([H:9])[H:10])([H:6])([H:7])[H:8].[H:11][H:14]
C       -1.95572800       0.26857300       0.75745600
C       -1.28919500      -0.31362800      -0.49477100
C        0.11590700       0.12867900      -0.69160300
O        1.05936800      -0.65737400      -0.30627700
C        2.35082500      -0.49296100      -0.29391700
H       -1.95958100       1.36019700       0.72709000
H       -2.99118000      -0.06874600       0.84309000
H       -1.42091600      -0.03907200       1.65772400
H       -1.87762700      -0.03595200      -1.37527300
H       -1.30126400      -1.40562100      -0.44496000
H        1.23856900       0.58449300       1.70557900
H        0.39743700       1.11309700      -1.05372600
H        2.77091800       0.43321100      -0.66068300
H        1.93525900       0.34659600       1.59405100
H        2.91459000      -1.34251700       0.04629200
