14
Extracted from Q-Chem output
C      -2.200471     -0.458667      0.042604
N      -1.321875      0.523190      0.751034
C       0.186338      0.657234      0.561164
O       0.771530      1.496608      1.195691
N       0.632697     -0.220351     -0.319302
C       2.020619     -0.326351     -0.701489
H      -2.115733     -0.263978     -1.029721
H      -1.440602      0.395670      1.754415
H      -1.849831     -1.461562      0.299871
H      -1.681900      1.460548      0.581364
H      -0.088549     -0.820353     -0.712586
H       2.389843     -1.335929     -0.518053
H       2.150693     -0.086251     -1.757711
H       2.597816      0.376974     -0.104349
