14
Extracted from Q-Chem output
C      -2.559948      0.720486      0.311216
N      -1.300393     -0.408705      0.294446
C      -0.111424     -0.163168     -0.440626
O      -0.144484      0.240992     -1.573798
N       1.026851     -0.444422      0.241681
C       2.316538     -0.166416     -0.357192
H      -2.464634      1.171713      1.300675
H      -2.259705     -0.638548     -0.172591
H      -2.207398      1.414142     -0.453288
H      -1.213985     -0.872582      1.185313
H       0.983256     -0.576992      1.235444
H       2.509113      0.906517     -0.428697
H       3.093039     -0.633545      0.245934
H       2.347583     -0.586104     -1.360990
