11
Extracted from Q-Chem output
C      -1.478430     -0.074308      0.340007
C      -0.083169      0.144025      0.313032
C       0.508844     -0.898011     -0.407466
O       1.676278     -0.402593     -0.971315
N       1.885294      0.850309     -0.450312
C       0.922619      1.155168      0.366270
H      -2.108490      0.177266      1.189853
H      -1.988306     -0.021382     -0.613077
H      -0.854689     -1.236189     -0.588117
H       0.656675     -1.877066      0.041028
H       0.931848      2.122526      0.845112
