13
Extracted from Q-Chem output
C      -1.005485     -0.559713      1.147485
C      -0.272297     -0.536161     -0.187392
N      -0.765486      0.557013     -1.052388
C       1.193566     -0.197920     -0.048421
C       1.335119      1.054261     -0.449389
O       0.198252      1.620532     -0.936243
H      -0.901839      0.403977      1.648759
H      -0.593003     -1.333042      1.799058
H      -2.067548     -0.758717      0.997387
H      -0.442106     -1.478325     -0.716359
H      -0.642233      0.264359     -2.018684
H       1.952131     -0.822787      0.393599
H       2.190082      1.714248     -0.428079
