17
Extracted from Q-Chem output
C      -2.173251     -0.477897      0.158062
C      -0.787990     -0.015561     -0.107066
O      -0.461714      1.228829      0.241063
C       0.794167      1.480746     -0.159195
C       1.558761      0.238029     -0.131968
C       1.356406     -0.670438      1.043706
C       0.419535     -0.838764     -0.116612
H      -2.895297      0.312165     -0.045657
H      -2.300085     -0.808455      1.195766
H      -2.401320     -1.328652     -0.485521
H      -0.447484      0.580776     -1.813495
H       0.159427      1.156614     -1.788439
H       1.148067      2.486490      0.000478
H       2.456445      0.148019     -0.727202
H       0.983646     -0.264373      1.976248
H       2.093662     -1.453341      1.148561
H       0.431222     -1.756046     -0.689728
