12
Extracted from Q-Chem output
O      -3.035115      1.074859     -0.269408
C      -2.033350      0.119688     -0.376133
C       0.186792     -0.027598      0.614614
N      -0.850241      0.509681      0.362662
N       2.392135     -0.328719     -1.001053
C       2.396121     -0.554379      0.241601
N       1.243471     -0.506445      1.026320
H      -2.718925      1.899343     -0.645960
H      -1.739016     -0.051604     -1.417033
H      -2.439753     -0.801738      0.042252
H       3.328629     -0.420867     -1.382609
H       3.277896     -0.823988      0.824063
