12
Extracted from Q-Chem output
O      -2.230369      0.952874      0.372631
C      -1.783276     -0.149745     -0.286613
C      -0.093218     -0.186512     -0.241883
N      -0.111374      0.224813     -1.393202
N       2.242270      0.113503     -0.726466
C       1.922342     -0.332614      0.420754
N       0.600415     -0.535622      0.790886
H      -2.318633      1.686743     -0.240965
H      -2.209117     -0.317552     -1.271978
H      -1.896029     -1.040119      0.334714
H       3.238846      0.203524     -0.876688
H       2.638436     -0.595351      1.199215
