14
Extracted from Q-Chem output
C       1.537759      0.154416      1.092704
C       0.107694      0.673629     -0.940247
C      -0.827277     -0.131635     -1.410800
C      -1.491834     -0.849117     -0.276764
O      -0.797297     -0.421544      0.882153
C       0.177930      0.566847      0.556132
H       1.485272      0.004588      2.171682
H       2.281797      0.927538      0.887897
H       1.862630     -0.777352      0.626479
H       0.749113      1.325980     -1.517463
H      -1.101396     -0.270611     -2.447790
H      -1.419851     -1.939435     -0.368875
H      -2.556510     -0.592797     -0.194581
H      -0.118481      1.517369      1.023728
