14
Extracted from Q-Chem output
C       1.448000      0.137583      0.740736
C       0.762010      0.079723     -1.029240
C      -0.731875      0.154330     -0.946448
C      -1.406051     -1.025358     -0.255441
O      -0.935093     -0.522938      1.034459
C      -0.319918      0.560038      0.401969
H       1.264712      0.570033      1.735008
H       2.343342      0.626761      0.368218
H       1.611232     -0.922354      0.879041
H       1.072286      1.084908     -1.353375
H      -1.268837      0.827966     -1.600884
H      -0.999879     -2.013735     -0.472106
H      -2.497114     -1.030341     -0.280410
H      -0.406622      1.554027      0.820721
