15
Extracted from Q-Chem output
N       2.462398      1.118479     -0.275903
C       1.229773      0.824162     -0.210986
O       0.368413      1.736836      0.300387
N       0.588956     -0.315936     -0.584417
C      -0.841833     -0.565673     -0.516229
C      -1.345710     -1.024841      0.846088
O      -1.474975      0.012520      1.788054
H       3.020167      0.384440     -0.693296
H       0.908614      2.510687      0.497867
H       1.181300     -1.072689     -0.869154
H      -1.062932     -1.339775     -1.253964
H      -1.379524      0.333691     -0.822216
H      -0.678447     -1.813719      1.222015
H      -2.339322     -1.465076      0.723025
H      -0.804444      0.680017      1.612552
