12
Extracted from Q-Chem output
C      -2.036613      0.485970      0.460610
C      -0.843216      0.779236     -0.402115
C       0.367387      0.402717     -0.136926
C       1.584339     -0.010590      0.115110
C       2.079534     -1.322045     -0.363792
O       1.434676     -2.119689     -0.991298
H      -2.505920      1.414217      0.792832
H      -1.755866     -0.095910      1.336935
H      -2.780275     -0.077602     -0.105810
H      -1.001063      1.338850     -1.320773
H       2.267735      0.607826      0.688289
H       3.133507     -1.537013     -0.095908
