12
Extracted from Q-Chem output
C      -1.858650      0.055157      0.251304
C      -0.388231      0.132887     -0.005075
C       0.569330      1.093996      0.413146
C       1.806785      0.380643      0.130086
C       1.517307     -0.868517     -0.284531
O       0.194670     -1.077078     -0.389843
H      -2.249432      1.059517      0.400169
H      -2.038050     -0.522479      1.158574
H      -2.383341     -0.425603     -0.574367
H      -0.149872      1.030578     -0.802436
H       2.801210      0.778235      0.262582
H       2.139087     -1.704735     -0.570963
