8
Extracted from Q-Chem output
O      -0.819090     -1.384461      0.875558
C      -0.583194     -0.585061      0.004635
C      -0.438518      1.090597      0.478612
O      -1.114169      1.903967      0.969018
C       0.905510      0.753827      0.093049
C       1.135116     -0.344791     -0.499396
H      -0.980910     -0.466968     -1.006539
H       1.887451     -0.986179     -0.916704
