12
Extracted from Q-Chem output
C       2.168168     -0.023970      0.110791
O       1.191118     -0.327451      1.067819
C       0.300679      0.104066      0.080874
C      -0.868157      0.995302      0.492297
O      -1.768432      0.139790     -0.225696
C      -0.750049     -0.834143     -0.502261
H       2.184533     -0.916795     -0.568922
H       0.955330      0.651933     -0.697483
H      -0.882707      2.021537      0.123283
H      -1.038314      0.973538      1.571958
H      -0.873128     -1.750204      0.082122
H      -0.687310     -1.067361     -1.566666
