14
Extracted from Q-Chem output
C      -1.318129      0.692180      0.358542
C      -0.159843     -0.174514     -0.030741
C       0.556260     -1.034796      0.941873
C       1.249320      0.154433      0.316386
C      -0.097528     -0.195881     -2.424587
O      -0.379684     -0.799006     -1.320000
H      -1.157361      1.111605      1.352051
H      -2.241498      0.111153      0.372977
H      -1.437364      1.518510     -0.345696
H       0.259764     -0.985705      1.981615
H       0.860630     -2.013823      0.596629
H       1.428769      1.034627      0.919792
H       2.014129     -0.052055     -0.420706
H       0.353018      0.797543     -2.150207
