14
Extracted from Q-Chem output
C      -1.607602     -1.103100      0.203274
C      -0.620415     -0.260790     -0.557323
C      -0.013373      0.974195      0.092184
N       0.741829      0.442656      1.282450
C       1.265706      0.271695     -0.040680
O       2.548640      0.582961     -0.315076
O       0.710778     -0.874226     -0.634294
H      -1.263285     -1.251940      1.225824
H      -1.721873     -2.076167     -0.276404
H      -2.582260     -0.610545      0.218377
H      -0.959212     -0.043904     -1.573902
H      -0.312517      2.008006      0.016777
H       2.668641      0.552201     -1.268411
H       1.225923      1.232130      1.700632
