14
Extracted from Q-Chem output
C      -1.591266     -1.002700      0.159412
C      -0.489223     -0.312181     -0.601123
C       0.120004      0.962907     -0.046952
N       0.832443      0.422502      1.203466
C       1.473308     -0.018146      0.039054
O       2.606001      0.410472     -0.426493
O       0.786067     -1.048263     -0.530716
H      -1.341123     -1.071695      1.216921
H      -1.751078     -2.007345     -0.233886
H      -2.520360     -0.439648      0.047605
H      -0.728955     -0.203428     -1.660585
H      -0.351400      1.931640      0.052044
H       1.595787      1.112515     -0.762637
H       1.392183      1.180600      1.581627
