16
Extracted from Q-Chem output
C       1.722680      0.375464     -1.088157
C       0.909646      0.902003      0.101494
C       0.456783     -0.286844      0.884395
O      -1.078609      0.015585      1.728786
C      -0.881821     -0.854155      0.591955
C      -1.738777     -0.468779     -0.583463
H       2.543645     -0.260434     -0.753211
H       2.145130      1.206520     -1.653369
H       1.099968     -0.211349     -1.766560
H       1.548984      1.530635      0.723460
H       0.086800      1.525412     -0.259815
H      -0.086628     -0.205984      2.171540
H      -1.015587     -1.903162      0.860465
H      -1.648557      0.585223     -0.839092
H      -2.787645     -0.676079     -0.365308
H      -1.456556     -1.067355     -1.452116
