19
Extracted from Q-Chem output
C       1.952842     -0.013119      0.972102
C       1.147137     -0.372230     -0.269946
C       0.002693      0.602291     -0.557688
C      -0.690656      0.285436     -1.885054
C      -1.028917      0.647708      0.562017
C      -1.605124     -0.660126      1.056061
O      -1.385229      1.699093      1.034778
H       2.762041     -0.726118      1.136878
H       1.333038     -0.005530      1.872336
H       2.395211      0.980833      0.877237
H       0.751249     -1.389586     -0.183038
H       1.806971     -0.383445     -1.142547
H       0.406678      1.617137     -0.611281
H      -1.092055     -0.730646     -1.899017
H       0.021302      0.369394     -2.708048
H      -2.493538     -0.461689      1.651146
H      -0.867990     -1.167301      1.683645
H      -1.846820     -1.335537      0.234011
H      -1.510466      0.979091     -2.078858
