19
Extracted from Q-Chem output
C       2.068716     -0.189550      1.019972
C       1.318229     -0.471919     -0.276252
C       0.260458      0.566576     -0.565450
C      -0.843881      0.251569     -1.607498
C      -1.056431      0.599225      0.083781
C      -1.547530     -0.562522      0.901199
O      -1.771994      1.729488      0.159562
H       2.845727     -0.934459      1.197658
H       1.392639     -0.199953      1.877576
H       2.546431      0.792034      0.990600
H       0.870618     -1.468399     -0.241190
H       2.017632     -0.488795     -1.117191
H       0.659821      1.567339     -0.709183
H      -0.969544     -0.778237     -1.917103
H      -0.871329      0.992099     -2.403655
H      -2.622071     -0.676806      0.770304
H      -1.368769     -0.287004      1.943390
H      -1.041297     -1.503344      0.692319
H      -1.842089      1.029344     -0.975260
