9
Extracted from Q-Chem output
O       1.998190     -0.336221     -1.038274
C       0.936890     -0.114856     -0.454543
C       1.050071      1.275008     -0.470110
C      -1.028541     -0.487099      0.705632
O       0.153557     -1.007878      0.083528
H       0.688697      1.694797     -1.414193
H      -0.783859      0.382828      1.317200
H      -1.765798     -0.223589     -0.053228
H      -1.414405     -1.284722      1.333367
