9
Extracted from Q-Chem output
O       2.046848     -0.510234     -1.105157
C       1.059158     -0.246431     -0.481697
C       0.759388      1.115255     -0.082965
C      -0.911974     -0.409262      0.516694
O       0.177047     -1.148442      0.001951
H       0.262656      1.670049     -0.889876
H      -0.553432      0.633644      0.803731
H      -1.723735     -0.330880     -0.205055
H      -1.248882     -0.848220      1.453940
