19
Extracted from Q-Chem output
C      -0.655182     -1.712878     -0.945743
C      -0.478704     -0.304333     -0.791082
C      -1.201276      0.473898      1.001222
C      -0.552828      1.783998      0.677786
O       0.747369      1.558943      0.135478
C       0.870045      0.344344     -0.571375
C       1.893077     -0.545747      0.109177
H      -1.067656     -0.868332      0.186049
H      -1.510523     -2.083462     -1.488182
H       0.096092     -2.403700     -0.598141
H      -1.175760      0.311132     -1.351436
H      -0.808914      0.000843      1.904644
H      -2.290811      0.500192      1.001654
H      -0.399600      2.430618      1.544773
H      -1.166028      2.343793     -0.041639
H       1.222800      0.578992     -1.585731
H       1.521450     -0.907934      1.070138
H       2.149031     -1.401427     -0.516969
H       2.797092      0.034462      0.291311
