10
Extracted from Q-Chem output
N       1.951279     -0.048681      0.246176
C       0.681970     -0.460628     -0.040221
C      -0.343510      0.593254      0.089097
N      -1.556600      0.293048     -0.189096
C      -2.629100     -0.035305     -0.603440
O       0.418769     -1.602841     -0.353099
H       2.694247     -0.704026      0.083341
H       2.181078      0.922127      0.343974
H      -0.123334      1.603990      0.406220
H      -3.410902     -0.467594      0.012935
