12
Extracted from Q-Chem output
O      -0.750178     -0.888747     -2.379383
C      -0.341041     -1.122241      0.908111
C      -0.188440      0.358823      0.876923
C       1.044503      0.783047      0.121701
C      -0.277838      0.662950     -0.582292
C      -0.522879     -0.676319     -1.228378
N      -0.468623     -1.706460     -0.216706
H      -0.308475     -1.697368      1.830032
H      -0.596130      0.984705      1.657306
H       1.810189      0.041815     -0.070422
H       1.409004      1.787085      0.294043
H      -0.753781      1.540054     -0.993371
