15
Extracted from Q-Chem output
C       1.922235     -0.110727     -0.195281
C       0.624638      0.120601      0.552987
C      -0.429218     -0.950386      0.304791
C      -1.080607     -0.107386     -0.799489
C      -1.754778     -0.372033      0.615319
C      -1.732616      1.030697      0.323140
C      -0.334292      1.094650     -0.158006
H       2.551302      0.781112     -0.161100
H       2.489392     -0.936210      0.239981
H       1.731695     -0.347069     -1.245642
H      -0.273355     -2.021340      0.269630
H      -1.538637     -0.330027     -1.747481
H      -2.650934     -0.964824      0.741943
H       0.815446      0.348590      1.606473
H       0.013059      1.974151     -0.687283
