15
Extracted from Q-Chem output
C      -1.129488      0.884137     -1.052689
C      -0.745538     -0.446862     -0.729229
C      -1.186813     -1.160276      0.526809
C       1.079674      0.737565      0.127287
O       0.502824      1.771083     -0.198923
C       2.337682      0.823377      0.807419
C       3.390471      0.716263      1.382648
H      -1.852657      1.397876     -0.434414
H      -1.821237     -0.279799     -1.421409
H      -0.915641      1.282615     -2.033674
H      -0.123175     -0.977415     -1.436926
H      -1.535587     -0.448570      1.275497
H      -1.985952     -1.879798      0.331259
H      -0.342213     -1.697903      0.949870
H       4.323374      0.651307      1.890838
