10
Extracted from Q-Chem output
N       1.609830      0.110986      0.147968
C       0.327147     -0.278393      0.096914
C      -0.837350      0.599999     -0.195316
N      -1.936932     -0.350314     -0.102816
N      -1.476240     -1.467076      0.175271
N      -0.073132     -1.486745      0.311910
H       1.886389      1.041819     -0.092814
H       2.318988     -0.578964      0.316789
H      -0.814789      1.047447     -1.191288
H      -0.977374      1.398033      0.536982
