9
Extracted from Q-Chem output
O       0.660172      1.014505      0.862188
C      -0.025766      0.015462      0.222789
C       1.393861      0.089216      0.009330
O      -0.861322     -0.900035      0.806503
C      -1.354380     -0.108686     -0.312218
H       2.041137     -0.594820      0.548427
H       1.799190      0.525911     -0.897566
H      -1.537883     -0.668978     -1.223175
H      -2.100159      0.631454     -0.041091
