9
Extracted from Q-Chem output
O       0.320908      1.333570      1.070469
C       0.033737      0.406283      0.276313
C       1.302727     -0.107300     -0.106881
O      -0.659818     -1.067307      0.593649
C      -1.223806     -0.105638     -0.262530
H       1.967172     -0.342965      0.714111
H       1.693628     -0.118601     -1.122922
H      -1.309808     -0.386004     -1.315053
H      -2.109891      0.391994      0.128029
