7
smiles: [C+:2](=[C:3]=[N-:4])[H:6].[O:1]([H:5])[H:7]
O       -1.14988000       0.13105400       0.11543000
C        0.13448000      -0.81236100      -0.10606700
C        1.20335300       0.05834200      -0.08508800
N        2.08597100       0.80559600       0.06458700
H       -0.95100400       1.06029600      -0.00631000
H       -0.05430800      -1.15997800      -1.13024600
H       -1.35940600       0.03484200       1.04532400
