8
Extracted from Q-Chem output
O      -0.812762      0.007822     -0.901595
C      -0.282051     -0.875229      0.098419
C       0.424242      0.325622     -0.328552
O       0.507551      1.468863      0.424567
H      -0.303293      1.569037      0.930792
H      -0.813387     -0.864940      1.046827
H       0.015493     -1.856703     -0.258730
H       1.283999      0.260135     -0.987820
