8
Extracted from Q-Chem output
O      -1.485944      0.279590      0.043175
C      -0.356549     -0.531077      0.003230
C       0.914470      0.269012     -0.022456
O       0.909573      1.470947     -0.009080
H      -1.168852      1.192538      0.048139
H      -0.312139     -1.198465      0.876153
H      -0.360553     -1.178205     -0.885810
H       1.859993     -0.304340     -0.053352
