11
Extracted from Q-Chem output
C      -1.507255     -0.003498     -0.306050
N      -0.388831     -0.887916     -0.009957
C       0.801358     -0.502387      0.380378
N       1.103766      0.799806      0.560344
C       2.726390     -0.512439      0.264207
N       2.520977      0.727754      0.399858
H      -1.685430      0.678596      0.527308
H      -2.403719     -0.599983     -0.456021
H      -1.318618      0.576383     -1.212137
H      -0.529354     -1.879504     -0.098217
H       0.617350      1.592120      0.150293
