16
smiles: [C-:1]([O+:2]=[C:3]([C:4]([H:11])([H:12])[H:13])[C:5]([O:6][H:16])([H:14])[H:15])([H:7])[H:8].[H:9][H:10]
C        1.78973700       0.29366200       0.75670300
O        0.50969900       0.52499100       0.62969000
C       -0.37949100      -0.20855700       0.03866200
C        0.05969700      -1.45415300      -0.60960300
C       -1.75592500       0.34388200       0.00222800
O       -2.17394100       0.74989800      -1.29961100
H        2.32314300       1.03756300       1.32101900
H        2.22338400      -0.60960100       0.36038900
H        1.58262100       1.28888100      -1.57047800
H        0.94134200       1.29582800      -1.94868300
H        0.83395600      -1.25412200      -1.36658100
H       -0.77811100      -1.95245900      -1.09256600
H        0.51927900      -2.14035400       0.11847000
H       -2.48532800      -0.41467300       0.29634700
H       -1.82242800       1.17154400       0.71710500
H       -1.55186500       1.40737700      -1.61844700
