13
Extracted from Q-Chem output
O       2.256324     -1.209026     -0.036896
C       1.435683     -0.463100     -0.480610
N       0.065551     -0.435933      0.034345
C      -0.453050      0.886755      0.282070
C      -0.779516      1.307938      1.484953
C      -0.714647     -1.169907     -1.041355
H       1.550214      0.218060     -1.333003
H       0.043671     -0.988413      0.888540
H      -0.561416      1.473554     -0.620504
H      -0.679756      0.682496      2.364295
H      -1.179987      2.302642      1.621199
H      -0.711035     -0.524657     -1.923893
H      -0.171795     -2.097892     -1.228480
