13
Extracted from Q-Chem output
O       2.455735     -1.544276     -0.462009
C       1.771440     -0.556481     -0.515529
N       0.802801     -0.258038      0.405092
C       0.013345      0.889552      0.372848
C      -0.937786      1.174014      1.253531
C      -1.190948     -0.767735     -1.527496
H       1.849996      0.198285     -1.314705
H       0.706756     -0.905131      1.173475
H       0.238780      1.550541     -0.455603
H      -1.168318      0.517174      2.084095
H      -1.507971      2.085842      1.157787
H      -2.136969     -0.609626     -0.974032
H      -0.869979     -1.775359     -1.194776
