13
Extracted from Q-Chem output
C      -1.429090      0.378080      0.034937
C      -0.001222     -0.100186      0.175331
O       0.218266     -1.130466     -0.841441
C       0.640977     -2.313396     -0.574727
C       1.029135      0.985670     -0.043509
H      -1.635819      1.151158      0.776586
H      -2.132414     -0.441062      0.186531
H      -1.593944      0.799298     -0.958050
H       0.152382     -0.592287      1.142277
H       0.783782     -2.368442      0.543044
H       0.923908      1.415801     -1.040937
H       0.892106      1.780559      0.691273
H       2.040279      0.590472      0.059559
