13
Extracted from Q-Chem output
C      -1.468938      0.484280      0.007942
C      -0.338408     -0.463985      0.296321
O      -0.365907     -1.570427     -0.498639
C       1.018165     -1.266598     -0.614143
C       1.107587      0.546567     -0.159031
H      -1.401467      1.384638      0.619253
H      -2.401024     -0.033717      0.243289
H      -1.488638      0.756940     -1.046299
H      -0.182361     -0.692533      1.353104
H       1.493744     -1.708555      0.292429
H       0.952012      1.062415     -1.100512
H       0.837806      1.220086      0.667566
H       2.167961      0.354152     -0.007024
