14
smiles: [C:2](=[C:3]([C@@:4]1([H:12])[C:5]([H:13])([H:14])[O:6]1)[H:11])([H:8])[H:9].[O:1]([H:7])[H:10]
O        0.85972500      -0.84376600       2.18809200
C        1.63361800       0.74951500      -0.98153100
C        0.41379600       0.91773000      -0.49546600
C       -0.73137400       0.05543300      -0.84703100
C       -1.81909000      -0.18902900       0.10098000
O       -1.99294200       0.70079800      -0.98281700
H        0.84139000      -1.77915200       1.98168200
H        2.45305100       1.39474600      -0.69166000
H        1.85587100      -0.04156000      -1.68992100
H        1.15359800      -0.41136400       1.38532600
H        0.20028700       1.72190200       0.20338200
H       -0.53574700      -0.70328700      -1.60209200
H       -1.78178400       0.27536600       1.08304300
H       -2.37999000      -1.11757300       0.04211000
