13
Extracted from Q-Chem output
C      -1.373167      0.569706      0.865558
C      -0.949937     -0.428318     -0.041511
C      -0.115230      0.758093     -0.816226
N       1.128528     -0.022603     -0.682019
C       1.396338     -0.213438      0.745470
C       0.422819     -1.087558      0.086995
H      -0.074843      1.770031     -0.409259
H      -2.290428      1.010354      0.435933
H      -1.624616     -0.925678     -0.740119
H      -0.476710      0.780014     -1.840553
H       1.036351      0.528118      1.449246
H       2.384379     -0.615624      0.926737
H       0.604063     -2.134167     -0.123087
