10
Extracted from Q-Chem output
O       1.506386      0.245738      1.408513
C       1.293915     -0.425579      0.421527
C       0.372622     -0.076237     -0.658174
C      -1.059293     -0.316973     -0.430642
N      -0.717801      1.064879     -0.095892
H       1.841104     -1.372497      0.253145
H       0.191791      1.183075     -0.891486
H      -1.742380     -0.430563     -1.265569
H      -1.327398     -0.903465      0.443292
H      -0.440044      1.174521      0.880062
