14
smiles: [C:1]([N:2]=[C:3]=[C:4]([O:5][H:12])[H:11])([H:8])([H:9])[H:10].[C:6](=[O:7])([H:13])[H:14]
C        2.23504200      -0.25439600      -0.82675800
N        1.68364800       0.99589300      -0.32297700
C        0.48216800       1.21609300      -0.38129100
C       -0.78059800       1.56122400      -0.39821400
O       -1.69834200       1.31044000       0.59503200
C       -1.69863800      -1.56530500       0.02530500
O       -0.64075400      -1.87379400       0.48968200
H        2.97591800      -0.02001200      -1.59171900
H        2.75510700      -0.75581800      -0.00974000
H        1.47471800      -0.92107500      -1.24341900
H       -1.19814800       2.07505800      -1.25157100
H       -1.24551100       0.98511200       1.37568300
H       -1.78965600      -1.14045100      -0.99283400
H       -2.64375300      -1.68619600       0.58880000
