14
Extracted from Q-Chem output
C       2.300262     -0.403700     -0.858323
N       1.381211      0.693011     -0.656143
C       0.217073      0.483124     -0.248301
C      -0.753998      1.518534      0.103748
O      -2.133761      0.550405      0.266192
C      -1.672955     -0.777065     -0.000713
O      -0.285505     -0.783851      0.050170
H       2.915406     -0.190695     -1.733336
H       2.974000     -0.480979     -0.000497
H       1.810490     -1.372427     -0.994121
H      -1.011548      2.213419     -0.689019
H      -1.688080      0.990821      1.109897
H      -2.040976     -1.022764     -1.001502
H      -2.067422     -1.465467      0.746997
