19
Extracted from Q-Chem output
C      -1.487915     -1.620909     -1.118921
C      -0.853731     -0.281685     -0.767362
C      -1.012523      0.082076      0.706618
C      -0.067202      1.248718      0.885595
O       1.076788      0.954978      0.042295
C       0.652573     -0.348618     -0.967585
C       2.270075      0.618400      0.749775
H      -2.568644     -1.603580     -0.952691
H      -1.316072     -1.868567     -2.168210
H      -1.044077     -2.415503     -0.516181
H      -1.359741      0.502347     -1.356909
H      -0.703655     -0.761802      1.328884
H      -2.034851      0.357894      0.974277
H       0.280193      1.406500      1.906931
H      -0.490932      2.177884      0.502295
H       0.917171      0.145275     -1.914072
H       2.590975      1.489630      1.324236
H       2.093286     -0.246453      1.390832
H       3.010530      0.358231      0.000064
