16
Extracted from Q-Chem output
C       1.180233     -0.203991      1.193530
C       1.141969     -0.728241     -0.236937
C      -1.466356     -0.541237     -0.301042
C      -1.801175      0.736998     -0.454182
C      -0.525651      1.107137     -1.173159
C      -0.132039     -0.398041     -1.007411
H       2.140492     -0.425940      1.662117
H       1.036276      0.877783      1.234386
H       1.995984     -0.335071     -0.798373
H       1.265920     -1.816124     -0.221931
H      -1.962041     -1.392595      0.151264
H      -2.677907      1.313666     -0.185153
H       0.397562     -0.659147      1.803185
H       0.125241      1.810224     -0.649112
H      -0.640139      1.440245     -2.207357
H      -0.107950     -0.913635     -1.972571
