13
Extracted from Q-Chem output
O      -1.638520     -0.064821      0.515565
C      -0.336822     -0.501155      0.818581
C       0.371101     -1.306455     -0.270311
O       1.197333     -0.191890     -0.618336
C       0.699604      0.601165      0.477376
N       0.257667      1.879830      0.074599
H      -0.685199      1.863224     -0.288033
H      -0.279110     -0.903690      1.834150
H      -2.236665     -0.812799      0.547413
H       0.954503     -2.159527      0.091195
H      -0.266410     -1.620095     -1.102293
H       1.471288      0.716872      1.245163
H       0.346462      2.574957      0.797551
