16
Extracted from Q-Chem output
C      -2.375217     -0.104745      0.523856
C      -1.135786     -0.318309     -0.333837
C       0.096067      0.389814      0.221535
C       1.319718      0.155102     -0.616915
C       2.657202      0.055946     -0.044481
O       1.960795     -1.104670     -0.468709
H      -3.246441     -0.603888      0.096528
H      -2.228324     -0.498890      1.532390
H      -2.613447      0.958014      0.616635
H      -1.326633      0.036761     -1.352103
H      -0.088625      1.468473      0.280509
H       0.296799      0.044872      1.240689
H       1.243543      0.479643     -1.654807
H       3.525113      0.321288     -0.641631
H       2.782695      0.154137      1.030914
H      -0.919535     -1.387111     -0.417299
