16
Extracted from Q-Chem output
C      -1.616518     -0.483966      0.706033
C      -0.847856      0.041173     -0.494307
C       0.007433      1.334471     -0.113076
C       1.053709      0.492230     -0.591859
C       1.745696     -0.601288      0.151911
O       1.455035     -1.734034     -0.478981
H      -2.177862     -1.373594      0.420910
H      -0.927441     -0.773483      1.500476
H      -2.308375      0.264439      1.096039
H      -1.452919      0.291143     -1.362101
H      -0.260329      2.209431     -0.695595
H      -0.020948      1.499259      0.960036
H       1.279692      0.501419     -1.655524
H       2.821328     -0.276182      0.120022
H       1.474694     -0.537074      1.232141
H      -0.187365     -0.833478     -0.806771
