11
Extracted from Q-Chem output
O      -0.512405      2.441609     -0.626225
C      -0.120688      1.380147     -0.463769
O      -1.598389     -0.068634     -0.922026
C      -1.531004     -0.415177      0.268916
C       0.473963      0.348511      0.285022
C       1.451355     -0.638547     -0.125585
O       1.797740      0.482055      0.693844
H      -1.299321     -1.454005      0.545859
H      -1.968498      0.195655      1.071670
H       1.874081     -0.618628     -1.124385
H       1.452372     -1.599020      0.379730
