17
Extracted from Q-Chem output
O       1.806305      0.197783      1.213541
C       1.876060     -0.383717     -0.076040
C       0.476121     -0.824333     -0.464158
C      -0.498978      0.325423     -0.481799
C      -2.527691     -0.025852     -0.473941
O      -2.433726      1.022475      0.443135
C      -1.088526      0.855428      0.834858
H       2.675100      0.509399      1.469389
H       2.547149     -1.250872     -0.080807
H       2.253897      0.341411     -0.808980
H       0.132843     -1.587896      0.238741
H       0.522917     -1.291037     -1.452131
H      -0.163967      1.144342     -1.128481
H      -2.318918     -0.975303      0.065188
H      -1.508839      0.107204     -1.240626
H      -0.663208      1.795542      1.189929
H      -0.996514      0.096431      1.622508
