17
Extracted from Q-Chem output
C       1.382860     -0.692932      0.126696
C       1.233183      0.830995      0.085899
C       0.057082      1.053727     -0.870422
C      -0.917061     -0.085882     -0.576899
C      -1.644225     -0.005976      0.777950
C      -0.703378     -0.951969      1.458778
C      -0.069162     -1.206262      0.101089
H       1.896925     -1.047079     -0.770667
H       1.927175     -1.054091      0.999598
H       2.142380      1.340304     -0.235181
H       0.406954      0.968650     -1.903310
H      -0.402476      2.039145     -0.764238
H      -1.538481     -0.339678     -1.436213
H      -1.912532      0.937180      1.261950
H      -2.565339     -0.613847      0.756585
H       0.989238      1.203982      1.086215
H      -0.138687     -2.239480     -0.243784
