17
Extracted from Q-Chem output
C       1.452134     -0.753847     -0.102644
C       1.095504      0.706026      0.126451
C       0.032487      1.007791     -0.897700
C      -0.927000     -0.156368     -0.638784
C      -1.576217      0.138045      0.719497
C      -0.306075     -0.335638      1.407969
C       0.012696     -1.158562      0.122605
H       1.890099     -0.968012     -1.082020
H       2.094869     -1.153328      0.683850
H       1.856046      1.456715      0.339918
H       0.464702      0.958204     -1.901839
H      -0.438563      1.985678     -0.780907
H      -1.532295     -0.471117     -1.492025
H      -1.991370      1.124704      0.935520
H      -2.327277     -0.623384      0.954752
H       0.599394      0.556247      1.367420
H      -0.280349     -2.206638      0.136608
