10
Extracted from Q-Chem output
O       1.323019      1.320344     -0.866358
C       0.852749      0.530702     -0.068361
C       0.635349     -0.887749     -0.130809
O      -1.403100     -0.578001     -0.638292
C      -1.477877      0.426084      0.058839
O      -0.476800      1.006841      0.649434
H       1.557161      0.168593      0.862472
H       1.203066     -1.475432     -0.848174
H       0.242034     -1.380316      0.745450
H      -2.440335      0.914338      0.243752
