15
Extracted from Q-Chem output
C       2.011727      0.263454      0.040504
C       0.602041     -0.215014     -0.156799
C      -0.308426     -0.280541      1.068799
N      -1.396268      0.122824      0.145008
C      -0.406691      0.766712     -0.752423
C      -1.861198     -0.959462     -0.452645
H       2.516304      0.397619     -0.918958
H       2.593173     -0.457624      0.619394
H       2.058222      1.227974      0.575083
H      -0.525241     -1.205933      1.601513
H      -0.097006      0.523511      1.792351
H      -0.216364      1.805593     -0.436966
H      -0.709566      0.750855     -1.799031
H      -2.197908     -0.894925     -1.479676
H      -2.111699     -1.827853      0.143533
