15
Extracted from Q-Chem output
C       1.656819      0.776004     -0.195048
C       0.332039      0.147819      0.053556
O       0.239892     -0.700098      1.287563
C      -0.998079      0.836919      0.362226
C      -1.408640     -0.606501      0.337677
O      -1.078416     -0.524518     -1.941793
C      -0.489107     -0.893812     -0.853912
H       1.600811      1.306135     -1.147525
H       1.937683      1.481356      0.588837
H       2.433380      0.013169     -0.285937
H       0.647458     -1.557263      1.086378
H      -1.090862      1.383232      1.299285
H      -1.411400      1.361995     -0.495804
H      -2.240217     -1.118443      0.822345
H       0.020465     -1.892339     -0.826820
