9
Extracted from Q-Chem output
N      -0.172163      0.797224      1.424065
C      -0.878454      0.479674      0.388793
N      -0.582815     -0.420461     -0.552353
C       0.797907     -0.767524     -0.508074
O       1.495409     -0.533180      0.539674
H      -0.413629      1.739720      1.736753
H      -1.791413      1.028297      0.133671
H       0.464102     -1.861534     -0.395277
H       1.236214     -0.674958     -1.520279
