17
Extracted from Q-Chem output
C      -1.624742     -0.979967      0.396307
C      -0.270693      1.375079     -0.327337
C      -0.795729     -0.043782     -0.373649
C       0.336768     -0.845993     -1.044906
C       1.048318     -0.546087      0.267253
C       1.192182      1.003099      0.143149
C      -0.292011     -0.617338      1.021530
H      -1.848399     -1.941830     -0.053319
H      -2.434226     -0.589986      1.002860
H      -0.284463      1.876038     -1.297874
H      -0.793322      2.005738      0.391369
H       0.085864     -1.893360     -1.199194
H       0.767777     -0.421153     -1.951282
H       1.939144     -1.084432      0.601946
H       1.965450      1.287613     -0.575439
H       1.433789      1.472287      1.099154
H      -0.405705      0.035282      1.882331
