12
Extracted from Q-Chem output
N       2.631796      0.732576     -0.730513
C       1.722923     -0.070384     -0.559201
C       0.716632     -0.902464     -0.463519
N      -0.513012     -0.602058      0.179541
C      -1.642840     -0.277625     -0.681454
C      -0.979848      0.768515      0.129221
H       0.839873     -1.917265     -0.819514
H       3.295140      0.781833      0.041360
H      -2.594272     -0.690383     -0.368743
H      -1.464622     -0.257891     -1.751618
H      -0.368587      1.491711     -0.402206
H      -1.443601      1.133579      1.037251
