16
smiles: [C:1](/[C:2]([O:3][H:11])=[C:4](/[O:6][H:16])[H:12])([H:7])([H:8])[H:9].[C:5]([H:10])([H:13])([H:14])[H:15]
C        2.02503300      -0.46569500       0.01266100
C        0.94021600       0.53340900      -0.19062100
O        0.43072300       1.15710300       0.93522000
C        0.45433500       0.92008600      -1.36409500
C       -2.17216600      -1.01470500       0.64580100
O       -0.53377600       1.83991100      -1.51288000
H        2.88589900      -0.01377700       0.51314500
H        2.35795200      -0.87029900      -0.94259400
H        1.68384900      -1.30581800       0.62769600
H       -1.28307500      -1.64173700       0.69394700
H        0.44740600       0.54921900       1.67622200
H        0.83168100       0.53317900      -2.29969300
H       -3.04194700      -1.63411600       0.43240000
H       -2.31053800      -0.50864000       1.60001900
H       -2.04985700      -0.27438400      -0.14336500
H       -0.80457500       2.11894500      -0.63144800
