16
Extracted from Q-Chem output
C       2.063468     -0.436913     -0.129544
C       0.717242      0.081568      0.294242
O       0.761794      1.216629      1.160072
C      -0.270170      0.350506     -0.733704
C      -1.992756     -0.703292      0.044877
O      -0.808512      1.545347     -0.865148
H       2.700942      0.344883     -0.561822
H       1.944876     -1.229455     -0.872570
H       2.596210     -0.872198      0.717551
H      -0.569920     -0.569484      0.362912
H       0.572751      0.929618      2.053570
H      -0.274962     -0.255764     -1.630658
H      -1.971307     -1.748288      0.375753
H      -2.480596     -0.072412      0.791132
H      -2.543253     -0.646606     -0.893799
H      -0.505185      2.044045     -0.083292
