14
smiles: [C-:1]([O+:2]=[C:3]1[C:4]([H:11])([H:12])[O:5][C:6]1([H:13])[H:14])([H:7])[H:9].[H:8][H:10]
C        1.82140700      -0.20853100       0.85911100
O        0.77467000       0.56148200       0.72909400
C       -0.28186900       0.33414100       0.04164200
C       -0.86301400      -0.97501000      -0.35727400
O       -2.17562600      -0.40895300      -0.19228700
C       -1.66267500       0.85657200       0.28150700
H        1.90954200      -1.08743300       0.23717400
H        1.93005300       0.50514200      -1.49167800
H        2.63040500       0.22419100       1.42029200
H        1.22529500       0.68241800      -1.65398200
H       -0.64193400      -1.77984700       0.36785800
H       -0.70429900      -1.35386600      -1.37173300
H       -1.92034200       1.04706600       1.33095100
H       -2.01631700       1.68432200      -0.33976800
