14
Extracted from Q-Chem output
C       1.887179     -0.118860      0.675072
O       0.773549      0.560022      0.761633
C      -0.238863      0.354519     -0.027229
C      -0.841719     -0.975567     -0.383051
O      -2.150338     -0.414371     -0.191753
C      -1.628466      0.859495      0.239635
H       1.864766     -1.114886      0.252952
H       1.811495      0.469420     -1.242380
H       2.654242      0.203066      1.360571
H       1.058166      0.644133     -1.435979
H      -0.608131     -1.768482      0.346451
H      -0.705981     -1.363690     -1.395399
H      -1.855447      1.072997      1.290434
H      -1.995153      1.673898     -0.390051
