11
Extracted from Q-Chem output
O      -2.589180      0.314317      0.159421
C      -1.438170      0.099571     -0.498221
N      -0.355897      0.801883      0.100051
C       0.767465      0.301768      0.068523
O       2.875394     -0.053702     -0.963887
C       1.972745     -0.195587      0.053375
N      -1.311582     -0.582503     -1.543959
H      -2.420680      0.938802      0.872772
H       2.415178      0.187574     -1.771539
H       2.333725     -0.767450      0.896785
H      -2.207714     -0.954135     -1.844401
