15
Extracted from Q-Chem output
O       0.628414     -2.535143     -0.311535
C       0.302505     -1.388722     -0.153598
C      -1.114053     -0.904784      0.150391
C      -0.942354      0.454775      0.839111
C       0.748421      0.946138     -1.021426
C       0.439531      0.946493      0.430644
C       1.211496     -0.209523     -0.160448
H      -1.658907     -0.831071     -0.794687
H      -1.632613     -1.645743      0.756099
H      -1.724101      1.168529      0.572695
H      -0.972014      0.328756      1.923371
H       1.529177      1.607291     -1.371744
H      -0.047007      0.775828     -1.737105
H       0.944924      1.662107      1.065341
H       2.269143     -0.372674     -0.011295
