15
Extracted from Q-Chem output
O       0.727314     -2.669019     -0.250176
C       0.458087     -1.495145     -0.047969
C      -0.989586     -0.979319      0.001083
C      -0.890624      0.423344      0.550105
C       0.401574      1.383705     -0.980109
C       0.748602      0.879919      0.323834
C       1.343870     -0.434090      0.291824
H      -1.462853     -1.030208     -0.979444
H      -1.553896     -1.627408      0.673190
H      -1.618984      1.135099      0.175257
H      -0.923970      0.458283      1.638409
H       0.722635      0.839729     -1.859213
H      -0.352944      2.149730     -1.117740
H       1.007019      1.613624      1.090938
H       2.366463     -0.633051      0.582619
