12
Extracted from Q-Chem output
C      -1.831946      0.867933      0.136497
C      -0.638342      0.298867      0.047595
C      -0.343073     -1.182062     -0.115685
O       1.095335     -1.225719     -0.159998
C       1.476130      0.043263     -0.034478
O       2.782911      0.205849     -0.050999
N       0.599849      0.963479      0.086680
H      -2.736177      0.274872      0.097477
H      -1.923551      1.938940      0.251145
H      -0.679778     -1.787369      0.726574
H      -0.729821     -1.601716     -1.044832
H       2.950303      1.149893      0.045804
