19
Extracted from Q-Chem output
C       2.210751      0.327812     -0.278716
C       0.955595      0.086213      0.549264
C      -0.354462      0.238168     -0.222239
C      -0.438846     -0.722865     -1.409089
C      -1.617502     -0.430696      1.891597
C      -1.571926      0.034641      0.654547
O      -0.367978      1.587906     -0.696733
H       2.167250      1.296981     -0.775793
H       2.353293     -0.439717     -1.041784
H       3.094274      0.314678      0.361622
H       0.927246      0.794277      1.381263
H       0.987789     -0.916099      0.984589
H       0.342423     -0.501162     -2.136402
H      -0.336801     -1.758612     -1.080075
H      -1.405993     -0.628288     -1.910802
H      -0.728811     -0.727943      2.435288
H      -2.561717     -0.528595      2.413127
H      -2.507825      0.313558      0.170109
H      -1.150530      1.717018     -1.237005
