17
smiles: [C:1]([C@@:2]1([O:3][H:11])[C:4]([H:12])=[C:5]1[C:6]([H:14])([H:15])[H:16])([H:8])([H:9])[H:10].[O:7]([H:13])[H:17]
C       -2.02098700      -0.26765100      -0.49383600
C       -0.81649000       0.10809900       0.33972100
O       -0.49367100       1.48384000       0.20869900
C       -0.43399400      -0.59251100       1.58979600
C        0.33222400      -0.78715600       0.56274400
C        1.53293600      -1.37250200      -0.06144300
O        1.90596500       1.82196000      -1.16937600
H       -2.91156800       0.27736800      -0.16414600
H       -1.85186900      -0.02356100      -1.54497300
H       -2.23386100      -1.33340300      -0.40960900
H       -1.28517900       2.00022500       0.37532200
H       -0.64029100      -0.76292200       2.63341400
H        2.46669100       2.36451000      -0.61353900
H        2.08463000      -1.99793900       0.64021800
H        1.25684500      -1.97487500      -0.92954100
H        2.19063400      -0.57585900      -0.41426300
H        1.05347300       1.80605300      -0.73247200
