17
Extracted from Q-Chem output
C      -1.779777     -0.465571     -0.373154
C      -0.665542      0.437583      0.088045
O      -0.824776      1.758044     -0.454953
C       0.069023      0.296810      1.373342
C       0.734125     -0.056415      0.134264
C       1.382774     -1.264349     -0.445263
O       1.691481      1.214137     -0.041652
H      -2.725578     -0.130169      0.057017
H      -1.879786     -0.446553     -1.460505
H      -1.613003     -1.494218     -0.052240
H      -1.090710      2.319749      0.278482
H      -0.216780     -0.435711      2.117740
H       1.301677      1.390397      0.943297
H       2.305071     -1.502794      0.086123
H       0.704645     -2.111247     -0.336947
H       1.608779     -1.140685     -1.505755
H       1.133867      1.804672     -0.591130
