14
Extracted from Q-Chem output
C      -0.920123     -1.138960     -0.055665
C      -0.952749      0.368236      0.157394
C      -0.269259      1.009279      1.223008
C       0.627686      0.733741      0.198439
C       1.304121     -0.574532     -0.093576
O       0.378885     -1.587438      0.244831
H      -1.609460     -1.671043      0.602074
H      -1.184774     -1.351571     -1.100508
H       0.091096      1.183227     -1.290797
H      -1.630679      0.932222     -0.500809
H      -0.491529      1.946433      1.707423
H       0.845036      1.554658     -0.676641
H       2.187488     -0.720710      0.528345
H       1.584885     -0.617761     -1.154673
