11
Extracted from Q-Chem output
C      -1.976486     -0.082155      0.632094
C      -0.741542     -0.255132      0.177723
C       0.202762      0.863380      0.114617
N       1.412081      0.815350     -0.253203
C       2.038241     -0.327142     -0.727783
O       1.844297     -0.826967     -1.802964
H      -2.683639     -0.900100      0.685032
H      -2.322410      0.890525      0.966379
H      -0.400588     -1.224988     -0.167465
H      -0.183005      1.833863      0.433641
H       2.822571     -0.688919     -0.038412
