14
smiles: [C+:1]([N:2]([C:3]([C:4]([H:12])([H:13])[H:14])=[C:5]=[N-:6])[H:10])([H:7])[H:8].[H:9][H:11]
C        1.39149900      -1.01244400       0.61756200
N        0.64535800       0.05165400       0.80826800
C       -0.57947400       0.34169200       0.33822200
C       -1.26203900      -0.64129500      -0.53960300
C       -1.12729000       1.57760100       0.71948500
N       -1.57354800       2.59579100       1.03648100
H        1.03007800      -1.81677100      -0.00043900
H        2.35606700      -1.04667100       1.09391900
H        1.57979000       0.68752300      -1.96536800
H        1.04619900       0.76982300       1.39941200
H        1.05183500       1.19671500      -1.83749900
H       -2.23863100      -0.26882000      -0.83965300
H       -0.67758000      -0.84008400      -1.44749300
H       -1.40274500      -1.60327500      -0.02973200
