14
smiles: [N:3](=[C:4]([H:10])[H:11])[H:9].[O:1]=[C:2]([C:7](=[C:6]=[C:5]([H:12])[H:13])[H:14])[H:8]
O       -1.58092100       0.03385700      -0.89406200
C       -0.85836700       0.92717800      -0.54209700
N       -0.80622600       0.55168500       2.34685500
C       -1.36815400      -0.57658400       2.35770800
C        1.89966100      -1.11912200      -1.63087400
C        1.27443700      -0.10216700      -1.13363100
C        0.62092700       0.91545400      -0.63493300
H       -1.27880600       1.85551700      -0.10714600
H       -0.50768200       0.82022200       3.28360300
H       -1.74005000      -0.98959900       1.41941900
H       -1.51697100      -1.18863000       3.25310400
H        2.21286700      -1.94058000      -0.99748500
H        2.11344200      -1.17529200      -2.69168100
H        1.15899300       1.78558000      -0.27388800
