14
Extracted from Q-Chem output
C       1.866797      0.348393     -0.542691
C       0.671529     -0.271830      0.023862
O      -1.133062     -0.204622      1.700105
C      -1.575542     -0.749248      0.527859
C      -0.687190     -0.035521     -0.487624
O      -0.692760      1.343754     -0.109486
H       1.649388      1.044837     -1.347767
H       2.440859      0.848062      0.242141
H       2.510229     -0.470148     -0.894157
H       0.774562     -0.911440      0.893339
H      -2.644565     -0.559861      0.323965
H      -1.415659     -1.841735      0.433644
H      -0.838679     -0.143655     -1.562917
H      -0.923008      1.188093      0.868312
