17
Extracted from Q-Chem output
C       1.905070     -0.754429     -0.299557
C       0.003892      1.768166     -0.720815
C       0.588617     -1.176536      0.341721
C      -0.649409     -0.799433     -0.473597
C      -1.037307      0.673316     -0.454720
C      -1.268058      1.412411      0.867689
O      -0.288538      2.384118      0.414072
H       2.753620     -1.038888      0.325170
H       2.029905     -1.232913     -1.274020
H       1.952772      0.324664     -0.463192
H       0.587705     -2.261525      0.478000
H       0.516225     -0.754559      1.349791
H      -1.509678     -1.375127     -0.117229
H      -0.494496     -1.095761     -1.515569
H      -1.862662      0.838375     -1.155259
H      -0.922034      0.923671      1.778072
H      -2.238685      1.880197      1.036130
