17
Extracted from Q-Chem output
C       1.877692     -0.133393     -0.475407
C       0.387570      0.929401     -0.530517
C       0.350014     -1.080473      0.388915
C      -1.002761     -1.017712     -0.268371
C      -1.080179      0.467817     -0.492511
C      -1.164514      1.362691      0.747761
O       0.234016      1.693550      0.604994
H       2.408645     -0.816994      0.212606
H       1.937801     -0.537380     -1.482330
H       2.494700      0.766849     -0.438861
H       0.860570     -2.035437      0.313495
H       0.386969     -0.702922      1.407785
H      -1.823396     -1.469065      0.306135
H      -0.966922     -1.526209     -1.234549
H      -1.689487      0.793360     -1.335437
H      -1.377157      0.871408      1.702669
H      -1.786354      2.253502      0.650951
