18
Extracted from Q-Chem output
C      -1.388171      1.266505     -0.381993
C      -0.582435      0.165413      0.289954
C      -1.188176     -1.211889      0.003627
C       0.862420      0.152004     -0.210162
C       1.826040     -0.726196      0.553411
O       1.061670      0.252931     -1.518429
H      -0.951923      2.251300     -0.193083
H      -1.413204      1.110970     -1.460910
H      -2.411353      1.276698     -0.003390
H      -0.564092      0.328319      1.372952
H      -0.703780     -2.003761      0.576628
H      -2.246765     -1.211848      0.266812
H      -1.100298     -1.449691     -1.057982
H       1.267058      1.456744      0.299933
H       2.850706     -0.481882      0.281544
H       1.633793     -1.749724      0.222591
H       1.692171     -0.665922      1.634272
H       1.323610      1.299438     -0.663242
