17
Extracted from Q-Chem output
C      -1.325673     -0.735330     -0.345475
C      -0.441052      0.013249      0.507870
O      -0.687696     -0.130185      1.773114
C       0.049483      1.388135      0.022090
C       1.450241      1.183198     -0.461417
C       1.814452     -0.088511     -0.506165
C       0.765374     -1.070958     -0.104034
H      -1.610949     -1.727387     -0.022300
H      -1.447719     -0.507718     -1.401944
H      -2.678199     -0.181274      0.780382
H      -2.142933     -0.115650      1.462750
H      -0.595604      1.797964     -0.763022
H      -0.002992      2.068281      0.873004
H       2.098343      2.006319     -0.736900
H       2.788603     -0.439462     -0.827118
H       0.979944     -1.671537      0.777034
H       0.544460     -1.752486     -0.930606
