13
Extracted from Q-Chem output
O       2.395447     -1.096994      0.127281
N       1.920607     -0.484695     -1.026775
C       0.749930     -0.020100     -0.882803
C      -0.103770     -0.066816      0.313186
C      -1.595549     -0.169880      0.117628
C      -1.003750      1.110980      0.593958
H       3.267816     -1.395286     -0.135719
H       0.359959      0.463757     -1.775583
H       0.319173     -0.576224      1.166129
H      -1.964420     -0.213492     -0.899360
H      -2.145598     -0.781565      0.819597
H      -0.967196      1.945329     -0.094802
H      -1.138472      1.390169      1.630079
