13
Extracted from Q-Chem output
O       2.517349     -0.743065     -0.253539
N       1.824837      0.434130      0.027584
C       0.581418      0.240534      0.000488
C      -0.318635     -0.945543     -0.234717
C      -1.522788     -0.021745      0.096060
C      -0.561119      1.191280      0.252896
H       3.434865     -0.470420     -0.195286
H      -0.284355     -1.324012     -1.257495
H      -0.147608     -1.781464      0.444456
H      -2.256750      0.079324     -0.701595
H      -2.042327     -0.291382      1.014136
H      -0.671772      1.960049     -0.512944
H      -0.553114      1.672313      1.231029
