13
Extracted from Q-Chem output
O       2.351256     -0.839061      0.185793
N       1.825991      0.289527     -0.418518
C       0.476515      0.097737     -0.447021
C      -0.368252     -0.982472     -0.021888
C      -1.564316     -0.105645      0.236347
C      -0.611840      1.095907      0.126188
H       3.301282     -0.710014      0.119182
H       0.267834      0.126111     -1.544920
H      -0.122510     -1.968024      0.347997
H      -2.382597     -0.165147     -0.486270
H      -1.991347     -0.213467      1.237116
H      -0.865555      1.930858     -0.522888
H      -0.291065      1.456632      1.099108
