14
Extracted from Q-Chem output
C      -1.086638      0.166064     -1.015593
C      -0.614155      0.249431      1.477161
C      -0.157697     -1.076591      0.960282
N      -0.090153      0.068414      0.045261
C       1.231491      0.546400     -0.343506
H      -1.186380      1.211186     -1.311227
H      -0.789308     -0.437973     -1.877474
H      -2.037489     -0.174881     -0.617075
H       0.218172      0.719312      2.015531
H      -0.897614     -1.824849      0.683621
H       0.822665     -1.507504      1.163191
H       1.926354      0.379128      0.476055
H       1.586018      0.025815     -1.236838
H       1.175185      1.616929     -0.548151
