14
Extracted from Q-Chem output
C      -1.300472      0.461605     -0.765978
C      -0.798504      0.115268      1.081668
C      -0.054581     -1.144583      0.973850
N       0.129995     -0.410304     -0.248988
C       1.399282      0.257211     -0.438841
H      -1.733857      1.402153     -0.423819
H      -0.823127      0.670111     -1.736488
H      -2.080130     -0.277498     -0.900555
H      -0.171520      0.909684      1.502951
H      -0.582890     -2.091536      0.882516
H       0.876343     -1.218004      1.528876
H       1.808727      0.666003      0.492362
H       2.115102     -0.450569     -0.863910
H       1.271195      1.076915     -1.149608
