14
Extracted from Q-Chem output
O       1.895602     -0.339867     -0.995713
C       0.869623      0.571880      0.487446
C      -0.554781      0.615300      0.067490
O      -1.441103      0.967119      1.144541
C      -0.677369     -0.772363     -0.401608
O      -0.793588     -1.720954      0.622531
H       1.986819      0.219558     -1.778328
H       1.115404     -0.178185      1.226936
H       1.545321      1.415598      0.410530
H      -0.690449      1.300222     -0.776453
H      -1.397693      1.912108      1.307439
H      -1.331098     -0.950489     -1.257307
H       0.958748     -0.787388     -1.040977
H      -1.462575     -1.413268      1.242226
