18
Extracted from Q-Chem output
C      -2.016079     -0.320729     -0.724828
C      -1.284439      0.781446      0.028855
C      -0.661119      0.311073      1.340193
N       0.340590     -0.733402      1.161822
C       1.649251     -0.521817      0.938550
O       2.008712      0.723100      0.862442
C       2.550977     -0.115362     -0.618106
H      -2.452784      0.056100     -1.650980
H      -1.337975     -1.135334     -0.988860
H      -2.826828     -0.741319     -0.123607
H      -0.495112      1.205665     -0.597562
H      -1.975561      1.599294      0.253897
H      -0.182424      1.153075      1.840892
H      -1.433185     -0.076450      2.009739
H       0.055421     -1.691676      1.249984
H       2.541872      0.856736     -1.113866
H       1.964342     -0.821101     -1.206344
H       3.543134     -0.482133     -0.403120
