16
Extracted from Q-Chem output
C       1.279331     -0.034597     -1.918115
N       0.856872      0.296480     -0.573123
C       1.236400     -0.623583      0.474733
C      -0.170004     -0.536595     -0.004056
C      -1.238952      0.108928      0.799113
O      -2.063574     -0.838982      1.323986
C      -1.363873      1.416903      0.984942
H       2.283125      0.358459     -2.086210
H       0.601926      0.434323     -2.633123
H       1.293747     -1.118199     -2.109443
H       1.802339     -1.509111      0.196429
H       1.503279     -0.174395      1.424108
H      -0.519813     -1.380151     -0.596353
H      -2.154866      1.832098      1.598353
H      -2.751574     -0.408635      1.836997
H      -0.657988      2.086340      0.517139
