15
Extracted from Q-Chem output
O      -2.418159      0.374588     -0.116000
C      -1.374543     -0.434056      0.356526
C       0.008750      0.100393      0.059765
C       1.150433     -0.791835      0.521695
O       2.352349     -0.326022     -0.039213
C       0.370648      1.516029     -0.085598
O       0.149052      0.385142     -1.379354
H      -2.356149      0.424167     -1.072809
H      -1.487815     -0.493807      1.441556
H      -1.451362     -1.456059     -0.039956
H       1.175303     -0.777121      1.618579
H       1.008750     -1.825283      0.194689
H       2.315362      0.642795      0.084286
H       1.072327      0.169147     -1.597668
H      -0.551959      2.092549     -0.206425
