15
Extracted from Q-Chem output
O      -2.394177      0.185977     -0.272922
C      -1.315925     -0.456377      0.351600
C       0.039726      0.168715      0.057581
C       1.177640     -0.597823      0.717524
O       2.445926     -0.283005      0.210942
C       0.161095      1.619550     -0.173443
O       0.197740      0.309169     -1.378430
H      -2.242296      0.164010     -1.221381
H      -1.494186     -0.402339      1.428173
H      -1.277952     -1.519253      0.078444
H       1.188823     -0.342654      1.779429
H       0.977295     -1.675271      0.635970
H       2.493950     -0.589113     -0.697107
H       0.858847      1.171715     -1.339469
H      -0.839157      2.045662     -0.306886
