16
Extracted from Q-Chem output
C      -1.294690      0.431521     -1.036563
C      -0.061372      1.026087      1.036859
C      -0.293810     -0.076702      0.009708
C      -0.849872     -1.314068      0.725575
C       1.064711     -0.339861     -0.598563
C       1.934452      0.475571     -0.023960
N       1.228715      1.264766      0.934677
H      -2.241572      0.680806     -0.557009
H      -1.474779     -0.335795     -1.793250
H      -0.920500      1.325789     -1.538052
H      -1.020060     -2.121141      0.009073
H      -1.795452     -1.070220      1.210614
H      -0.157246     -1.673288      1.488760
H       1.281466     -1.066989     -1.367572
H       2.996477      0.605743     -0.174121
H       1.691941      1.960885      1.496625
