10
Extracted from Q-Chem output
N      -1.755474     -0.133567      0.037540
C      -0.429627     -0.093992     -0.094361
N       0.255913     -1.319968      0.097872
O       1.551608     -1.102545     -0.714097
C       1.558775     -0.024461      0.026423
C       0.490493      0.911017     -0.221293
H      -2.292936      0.705857      0.139965
H      -2.191197     -1.020575      0.218207
H       2.360205      0.079999      0.762547
H       0.454309      1.982975     -0.259329
