14
Extracted from Q-Chem output
O      -0.983032      1.888003     -0.110594
C      -0.780767      0.656271      0.512523
C      -1.094257     -0.629648     -0.294614
C       0.372449     -1.044001     -0.155951
C       1.306844     -0.252945     -0.964886
C       0.687955      0.205692      0.692208
H      -0.577895      1.843646     -0.983204
H      -1.299231      0.696829      1.469548
H      -1.418097     -0.459547     -1.321603
H      -1.804201     -1.283436      0.211413
H       0.658822     -2.014730      0.234127
H       1.296635      0.887116     -0.052415
H       2.322395     -0.589584     -0.705425
H       1.223230      0.120956      1.630024
