10
Extracted from Q-Chem output
O       2.335528     -0.263164      0.147453
C       1.031548     -0.036480      0.054493
N       0.163714     -1.162839      0.137714
C      -0.996374     -0.644666      0.018970
C      -0.912619      0.839734     -0.145329
N       0.504976      1.109967     -0.103186
H       2.457664     -1.210878      0.260945
H      -1.902404     -1.241198      0.040771
H      -1.447348      1.365101      0.653580
H      -1.357855      1.168518     -1.090743
