10
Extracted from Q-Chem output
O       2.275792     -0.211497     -0.009224
C       0.948790     -0.097331      0.076022
N       0.137827     -1.155373      0.106252
C      -1.095150     -0.642994      0.114351
C      -1.044356      0.746187      0.087675
N       0.376397      1.106572      0.105010
H       2.477692     -1.152072     -0.031170
H      -1.974954     -1.270190      0.131865
H      -1.786770      1.488419      0.333693
H      -0.386512      1.154692     -0.911350
