16
Extracted from Q-Chem output
C      -1.354269     -0.241696     -0.490188
C      -0.820715      0.392341      0.792390
N      -1.125336     -0.366369      2.005555
C       0.661688      0.645395      0.766334
C       1.458375      0.359310     -0.238579
C       1.845319     -0.105692     -1.535359
O       2.768071      0.455877     -0.557191
H      -1.163941      0.387661     -1.362252
H      -2.433417     -0.389388     -0.413143
H      -0.892748     -1.217677     -0.662648
H      -1.313506      1.364642      0.914490
H      -2.121743     -0.522564      2.089223
H       1.097802      1.080031      1.658795
H      -0.675879     -1.273449      1.969082
H       1.976852     -1.167158     -1.719335
H       1.682571      0.517091     -2.409208
