15
Extracted from Q-Chem output
C      -1.578154      0.689607      0.352649
C      -0.834247     -0.120076     -0.672751
N       0.382835      0.442090     -1.260693
C       0.478869     -0.759996     -0.436513
C       1.289238     -0.599461      0.838732
O       1.495501      0.747756      1.178533
H      -2.241090      0.042882      0.931569
H      -0.893414      1.182050      1.041197
H      -2.190709      1.450759     -0.134746
H      -1.477428     -0.658146     -1.365234
H       0.465286      0.244534     -2.248155
H       0.647106     -1.703629     -0.947746
H       2.252563     -1.109204      0.701496
H       0.777892     -1.088998      1.673325
H       1.425753      1.239833      0.348336
