15
Extracted from Q-Chem output
C      -1.448285      1.080799     -0.031756
C      -0.979330     -0.821241     -0.068570
N      -0.018978      0.431163     -0.877514
C       0.458911     -0.832265     -0.351828
C       1.504514     -0.719373      0.742359
O       1.333673      0.413500      1.557905
H      -2.485522      0.748767     -0.043891
H      -1.141671      1.313379      0.978615
H      -1.390452      1.975723     -0.662825
H      -1.517752     -1.276121     -0.910788
H      -0.231252      0.358844     -1.865744
H       0.772330     -1.491280     -1.160743
H       2.502852     -0.718232      0.281481
H       1.435465     -1.594690      1.391381
H       1.268231      1.171700      0.970993
