14
smiles: [C:1](=[C:2]([C:3]([H:8])([H:9])[H:10])[C:4]([H:12])([H:13])[H:14])([H:6])[H:7].[H:5][H:11]
C       -0.95421700      -1.16556900       0.36541900
C       -0.03794500      -0.20566400       0.35072600
C       -0.36765900       1.21992100       0.68610900
C        1.39633300      -0.47447700      -0.00161300
H       -0.88133300       0.18871000      -2.32884700
H       -0.70336000      -2.19194100       0.12273800
H       -1.98734500      -0.95828200       0.62020000
H        0.21831600       1.55963700       1.54509900
H       -0.11793700       1.88225800      -0.14776900
H       -1.42455800       1.34649900       0.91999000
H       -0.84418200       0.56748200      -2.96880100
H        1.56751900      -1.52720100      -0.22562600
H        2.05797800      -0.18540200       0.82002300
H        1.69731700       0.11644400      -0.87161500
