15
Extracted from Q-Chem output
C       1.671093      0.150465      0.242742
C       0.184397     -0.033327      0.110760
C      -0.765371      0.869249      0.880153
C      -1.978212      1.114073      0.008675
O      -1.760321      0.504235     -1.119069
C      -0.510345     -0.213312     -1.189634
C      -0.408177     -1.371397     -0.258617
H       2.004189     -0.100551      1.251954
H       2.215836     -0.489123     -0.454104
H       1.954408      1.186143      0.041546
H      -0.329223      1.851626      1.094580
H      -1.097256      0.470809      1.843161
H      -1.314419     -1.702965      0.234572
H      -0.070567     -0.190075     -2.176314
H       0.279345     -2.162015     -0.532863
