18
smiles: [C:1]([H:7])([H:8])([H:9])[H:10].[C:2]([C@@:3]1([H:12])[C:4]([H:13])([H:14])[C@:5]1([C:6]([H:16])([H:17])[H:18])[H:15])[H:11]
C        2.07002400       1.89930700      -0.26152700
C        0.97628000      -1.10962300       0.86328300
C       -0.00237300      -1.32222300      -0.12557100
C       -1.34357000      -1.82452800       0.54551800
C       -1.33166400      -0.50754700      -0.05779900
C       -1.42448200       0.74223600       0.77316100
H        1.64945600       1.45615800      -1.16294500
H        1.65489900       2.89625700      -0.12069300
H        3.15222600       1.96756200      -0.36159700
H        1.82231600       1.27807900       0.59772300
H        1.92803400      -1.54183900       0.50332200
H        0.18140200      -1.77825200      -1.09719700
H       -1.30955800      -1.90340900       1.62288800
H       -1.77660800      -2.66657700       0.02304600
H       -1.76849900      -0.44171300      -1.04841700
H       -2.47278600       0.97351100       0.97570800
H       -0.98228500       1.59210700       0.25091700
H       -0.90194000       0.61653400       1.71951300
