16
Extracted from Q-Chem output
C       2.096138     -0.707307      0.573782
N       0.944523     -0.261407     -0.186410
C       0.004190      0.551668      0.566299
C      -0.864788      1.461685     -0.281032
C      -1.652123      0.489366     -1.128078
C      -1.380336     -0.776820     -0.832401
C      -0.332155     -0.855545      0.221940
H       2.496855     -1.616525      0.122498
H       2.868883      0.062702      0.534952
H       1.869974     -0.916431      1.630553
H       0.275831      0.834300      1.577732
H      -0.259006      2.134849     -0.893855
H      -1.522041      2.081474      0.336331
H      -2.334824      0.812032     -1.904415
H      -1.819884     -1.643864     -1.307705
H      -0.310958     -1.656447      0.952765
