9
Extracted from Q-Chem output
O      -2.688935     -0.104024     -0.588439
C      -1.758659      0.211468      0.086898
C      -0.369182     -0.424950     -0.120236
N       0.624525      0.309180      0.599341
C       1.889330      0.304307     -0.039417
N       1.955833     -0.616672      0.762607
O      -0.193605     -1.409502     -0.768279
H      -1.821741      0.969154      0.888079
H       2.410233      0.854322     -0.808966
