17
smiles: [C:1]([C:2]1([H:11])[C:3]([H:12])=[C:4]1[H:14])([H:8])([H:9])[H:10].[C:5](=[C:6]([O:7][H:13])[H:17])([H:15])[H:16]
C       -2.37852500       0.52793000       0.66053000
C       -1.64160400       1.19606800      -0.48002000
C       -0.16898400       1.47175700      -0.41822600
C       -0.51938200       0.51459200      -1.20444800
C        2.92911700      -0.98494300      -0.71670900
C        2.36742200      -1.63038600       0.29519400
O        1.19782600      -1.32592600       0.90328600
H       -2.75300900       1.26670900       1.37419400
H       -1.72119800      -0.15779300       1.19938100
H       -3.23730100      -0.04181700       0.29564100
H       -2.26327100       1.88967900      -1.04980500
H        0.60956100       2.07046500       0.02169000
H        0.81290900      -0.55001500       0.48687600
H       -0.24666800      -0.26291300      -1.89662400
H        2.47492000      -0.10941400      -1.16767000
H        3.87071000      -1.32997900      -1.11749700
H        2.81838500      -2.50551500       0.74845900
