17
Extracted from Q-Chem output
C      -1.658699     -0.282390      0.587947
C      -1.101009      0.748633     -0.369464
C       0.174570      1.511088     -0.108530
C       0.166424      0.639316     -1.140642
C       1.687311     -0.964624     -0.848095
C       1.419519     -1.112156      0.476632
O       1.560287     -0.135474      1.325897
H      -2.482882      0.159023      1.151983
H      -0.920966     -0.620279      1.312707
H      -2.051981     -1.151256      0.054085
H      -1.894121      1.262381     -0.918252
H       0.453750      2.550961     -0.018072
H       1.031418      0.714776      0.870251
H       0.408648      0.614519     -2.189470
H       2.371910     -0.195725     -1.178022
H       1.494042     -1.785280     -1.527084
H       0.920752     -2.011794      0.842559
