19
Extracted from Q-Chem output
C       2.375540      0.422780     -0.720678
C       1.149618     -0.489582     -0.687699
C       0.361159     -0.295984      0.582211
C      -0.478671      0.970767      0.767530
C      -1.840563      0.335058      0.772595
C      -2.109568     -0.477999     -0.446222
C      -1.532074     -1.163771      0.749667
H       2.920102      0.308157     -1.659010
H       3.061832      0.189770      0.096091
H       2.091434      1.473312     -0.628340
H       0.518821     -0.279955     -1.554552
H       1.465153     -1.533247     -0.772187
H       0.956483     -0.531640      1.467277
H      -0.325574      1.713248     -0.022792
H      -0.244894      1.450495      1.718080
H      -2.658021      0.730329      1.363915
H      -3.143287     -0.767308     -0.603732
H      -1.567669     -0.300096     -1.367452
H      -0.365882     -1.411791      0.802628
