13
Extracted from Q-Chem output
O       1.952952      0.220886     -0.902469
C       2.393981     -0.398742      0.345366
C       1.024624     -0.170642      0.001539
C      -0.266261     -0.169722      0.146414
C      -1.443619     -0.457268      0.973068
C      -1.580079      0.194002     -0.385560
O      -1.988670      1.527801     -0.399171
H      -1.429302      2.009619     -1.011028
H       2.905360      0.275575      1.024401
H       2.829068     -1.385647      0.226462
H      -1.628528      0.188323      1.824433
H      -1.777007     -1.482927      1.085787
H      -1.993903     -0.414366     -1.187237
