16
smiles: [C:1]([C@@:2]1([H:10])[C:3]([H:11])([H:12])[O:4]1)([H:7])([H:8])[H:9].[C:5]([C:6]([H:14])([H:15])[H:16])[H:13]
C       -1.99716900       0.15189200      -0.67505600
C       -0.95168200      -0.19725300       0.34199600
C       -0.47981000      -1.56435200       0.53559000
O        0.31118200      -0.61149600      -0.15572700
C        1.66766400       0.04989200       0.89031100
C        1.86039300       1.22895200       0.06863100
H       -1.80788400       1.14096000      -1.09633400
H       -2.98728300       0.16303500      -0.21443200
H       -1.99759300      -0.57349000      -1.48952100
H       -0.87941400       0.47772100       1.19340100
H       -0.89148200      -2.35931100      -0.08124700
H       -0.09385000      -1.87721100       1.50174800
H        2.28266300      -0.75296700       0.43825400
H        2.16178800       1.13724900      -0.98028800
H        2.78518500       1.50439600       0.63976000
H        1.15828800       2.04587600       0.23568700
