14
Extracted from Q-Chem output
C      -2.298585     -0.066122     -0.395879
C      -0.892962     -0.430972      0.048660
C      -0.698400     -1.712744      0.004018
C       2.196499     -0.049629     -0.166883
N       3.336089     -0.542170     -0.014221
O       1.323964      0.190592      0.844008
C       0.045190      0.658957      0.472126
H      -2.817060      0.451431      0.413318
H      -2.254346      0.582448     -1.272534
H      -2.878087     -0.952177     -0.657451
H       1.833702      0.236446     -1.156505
H       3.515114     -0.761935      0.964407
H      -0.362533      1.166071      1.348518
H       0.125109      1.400280     -0.332919
