14
Extracted from Q-Chem output
C      -2.133589     -0.061636     -0.459090
C      -0.662919     -0.201938     -0.185368
C       0.002083     -1.262338     -0.596618
C       1.843413     -0.422828      0.128602
N       3.022245     -0.742660     -0.092472
O       1.355392      0.621063      0.786191
C      -0.009210      0.917829      0.570533
H      -2.690404      0.038457      0.476042
H      -2.331928      0.828307     -1.061903
H      -2.511244     -0.930343     -0.993927
H       1.144143     -1.465608     -0.289315
H       3.697278     -0.067192      0.259915
H      -0.478120      1.064283      1.546877
H      -0.073447      1.855080      0.009193
