12
Extracted from Q-Chem output
C      -2.031307      0.335474      0.625144
C       0.269209     -0.997846     -0.106196
C       1.089061      0.166697     -0.462770
O       0.670913      1.308956     -0.454566
N       2.372428     -0.178488     -0.786049
H      -2.927996     -0.105557      1.059037
H      -1.785890      1.285225      1.092659
H      -2.158941      0.483355     -0.443936
H      -0.346014     -1.273059     -0.974255
H      -1.197237     -0.363905      0.839368
H       2.775223     -1.008459     -0.387357
H       2.995950      0.583952     -0.995399
