17
Extracted from Q-Chem output
C       1.655081     -0.893890      0.270223
C       0.224301     -0.535852     -0.903554
C      -1.176077     -0.962164     -0.394537
C      -1.593485      0.489611     -0.426671
C      -0.516704      1.265997      0.267564
C       0.531965      0.465690      0.979758
C      -0.318616      0.876469     -1.148523
H       2.068352     -0.813697      1.291682
H       1.440332     -1.952233      0.154035
H       2.448504     -0.596361     -0.407526
H      -1.268438     -1.515678      0.543050
H      -1.636772     -1.549670     -1.193038
H      -2.579865      0.917970     -0.559990
H      -0.739149      2.282924      0.577675
H       0.226806     -0.030873      1.900614
H       1.402897      1.091613      1.154322
H      -0.135152      1.521842     -1.995123
