14
Extracted from Q-Chem output
C      -1.170743      0.005619     -0.796597
C       0.259032      0.317745     -0.401619
O       0.493996      1.709286     -0.377129
C      -0.028666     -0.969662      1.755502
C       0.662874     -0.162203      0.971915
O       1.073674     -0.285934     -1.386410
H      -1.865684      0.473864     -0.101188
H      -1.341775     -1.069909     -0.820185
H      -1.354164      0.393134     -1.800415
H       0.269560      2.057503     -1.244709
H       0.357669     -1.277993      2.718943
H      -1.001710     -1.354851      1.474709
H       1.630119      0.215865      1.295607
H       1.991851     -0.134628     -1.145214
