15
Extracted from Q-Chem output
C      -1.153672     -0.733800     -1.179345
C      -0.397953      0.289472     -0.322637
C      -1.052129      0.507226      1.039886
C       0.985677     -0.225167     -0.200696
C       1.977969     -1.056923     -0.358105
C       2.535498      0.019509      0.425996
O       3.555223      0.364709      0.945009
H      -2.173291     -0.381387     -1.338364
H      -0.676329     -0.872452     -2.148876
H      -1.194882     -1.701385     -0.677914
H      -0.353284      1.240736     -0.861795
H      -1.114935     -0.432750      1.590540
H      -0.490052      1.221171      1.644257
H      -2.061222      0.898612      0.906795
H       1.635791      0.875934      0.624373
