12
Extracted from Q-Chem output
N      -1.494888      0.790424     -1.143172
C      -0.429097      0.290347     -0.467447
C      -0.487056     -0.021527      0.899169
N       0.683478      0.079590     -1.171138
C       1.713565     -0.437774     -0.514978
N       1.773637     -0.769198      0.764033
C       0.651068     -0.548698      1.456189
H      -2.284461      1.153993     -0.645323
H      -1.330842      1.114563     -2.079119
H      -1.383388      0.139685      1.483992
H       2.611724     -0.604890     -1.103132
H       0.675273     -0.812867      2.509374
