16
smiles: [C:1]([C:2](=[O:3])[C@@:4]([C:5]([H:14])([H:15])[H:16])([C:6]#[N:7])[H:13])([H:8])([H:9])[H:10].[H:11][H:12]
C       -1.43703600      -0.48902100      -0.96366500
C       -0.37286800      -0.87195700       0.02294400
O       -0.31165500      -1.95329000       0.54260200
C        0.72932200       0.15440300       0.34970300
C        1.98734100      -0.18612700      -0.46533700
C        0.31257500       1.53757700       0.12277400
N       -0.01589600       2.62060700      -0.06513300
H       -2.07904700       0.27979500      -0.52717800
H       -2.03035300      -1.36273100      -1.22086200
H       -0.99290500      -0.05068000      -1.86017700
H       -1.75109200       0.96893700       2.27655000
H       -1.86409100       0.24764400       2.42302700
H        0.94827300       0.03701800       1.41300900
H        2.80192300       0.48905400      -0.20700400
H        1.79568300      -0.09585600      -1.53546900
H        2.28730300      -1.20934500      -0.24375700
