13
Extracted from Q-Chem output
C       1.807058     -0.090663      0.153049
C       0.327056      0.044188      0.060658
C      -0.578295     -0.979993     -0.555471
N      -1.932274     -0.469887     -0.444884
C      -1.833423      0.664227      0.138989
C      -0.461598      1.042343      0.479687
H       2.254463      0.772575      0.644991
H       2.083855     -0.986203      0.714967
H       2.253259     -0.186053     -0.840072
H      -0.341602     -1.163572     -1.609198
H      -0.511170     -1.949902     -0.050751
H      -2.714704      1.264241      0.347355
H      -0.157719      1.954534      0.974541
