13
Extracted from Q-Chem output
C       1.867025     -0.017614      0.084057
C       0.376659      0.022052     -0.030406
C      -0.446540     -1.001283     -0.515520
N      -1.827580     -0.576965     -0.497387
C      -1.783419      0.646629      0.056875
C      -0.481636      1.060750      0.317380
H       2.185560      0.016103      1.128113
H       2.272367     -0.928256     -0.357732
H       2.321957      0.834124     -0.424538
H      -0.179488     -1.866744     -1.105820
H      -1.324945     -1.413559      0.312751
H      -2.704089      1.169549      0.274107
H      -0.191220      2.010031      0.746016
