10
Extracted from Q-Chem output
O       2.453903     -0.683164     -0.080748
C       1.376661     -0.607178     -0.846190
N       0.249990     -0.958766     -0.380215
C      -0.918541     -0.612949     -0.031704
C      -1.276750      0.803210      0.204349
N      -0.525421      1.804763      0.034302
H       2.241290     -0.956240      0.825941
H      -1.691286     -1.372359      0.042367
H      -2.306285      0.976718      0.520107
H       0.411572      1.526736     -0.270785
