10
Extracted from Q-Chem output
O       2.286221     -0.287165     -0.314916
C       1.015837     -0.285738     -0.653524
N       0.148624     -1.114674     -0.213664
C      -1.053367     -0.682685      0.117137
C      -1.206543      0.715333      0.091668
N      -0.188261      1.515750     -0.070140
H       2.449553     -0.890305      0.425531
H      -1.874216     -1.382089      0.198219
H      -2.203923      1.130729     -0.037417
H       0.640331      1.259193      0.456736
