13
Extracted from Q-Chem output
O       2.181490      0.398515      2.038772
C       1.868321      0.774893      0.714385
C      -1.213000     -0.050308     -1.059453
C      -1.976576     -1.204004     -0.703552
C      -2.627038     -2.173502     -0.432663
C      -0.405029      0.559886     -0.230647
C       0.418161      1.161064      0.572557
H       1.638397     -0.357376      2.272530
H       2.111090     -0.017085     -0.001973
H       2.503110      1.634923      0.493184
H      -1.320980      0.329466     -2.071165
H      -3.204768     -3.032539     -0.185897
H       0.057113      1.965942      1.207380
