12
Extracted from Q-Chem output
N      -1.898931      0.193906     -0.000961
C      -0.517889      0.234145     -0.051337
C       0.310058      1.224942     -0.424794
N       1.666304      0.812821     -0.423402
C       1.694036     -0.409645     -0.057816
C       0.330557     -0.969565      0.224304
H      -2.355050      1.090683     -0.020807
H      -2.289592     -0.415024      0.698064
H       0.058240      2.234698     -0.714810
H       0.241837     -1.335784      1.252411
H       2.621006     -0.964212      0.034805
H       0.084150     -1.802237     -0.441445
