12
Extracted from Q-Chem output
N      -1.994633      0.208763     -0.243598
C      -0.613358      0.103446     -0.148228
C       0.301722      1.161551     -0.204317
N       1.574474      0.730217     -0.176257
C       1.472678     -0.687268     -0.002917
C       0.128046     -1.067387     -0.009914
H      -2.373566      1.098332      0.032997
H      -2.506626     -0.557757      0.158302
H       0.085677      2.220666     -0.227089
H       1.827357      0.139948      0.922462
H       2.352608     -1.292089     -0.167624
H      -0.252217     -2.074748      0.072458
