16
Extracted from Q-Chem output
C       1.582590      0.802311     -1.554721
O       1.200472      0.165086     -0.354598
C      -1.252001     -0.196285      1.976727
C      -0.682651     -0.407969      0.798518
N      -0.053697      0.637620      0.052926
O       0.169060      1.758129      0.861351
C      -0.725032     -1.709661      0.060661
H       2.521515      0.338544     -1.853581
H       0.828316      0.653042     -2.331820
H       1.749415      1.872616     -1.399203
H      -1.194958      0.758243      2.476615
H      -1.796324     -0.998688      2.455582
H      -0.203231      2.481096      0.350373
H      -1.061687     -1.558154     -0.967028
H      -1.409631     -2.395049      0.557296
H       0.263756     -2.166462      0.019343
