15
Extracted from Q-Chem output
C      -2.203906     -0.171867     -0.401624
N      -0.843159     -0.339933      0.028752
C      -0.424672     -0.345305      1.324297
N       0.818277     -0.118171      1.542153
C       1.393372      0.122611      0.273983
C       2.689069      0.310684      0.058560
C       0.284408      0.111279     -0.768909
H      -2.391681     -0.748412     -1.309851
H      -2.878551     -0.536319      0.373278
H      -2.445200      0.879051     -0.605398
H      -1.139237     -0.564126      2.111796
H       3.075120      0.482823     -0.937631
H       0.487094     -0.562921     -1.604031
H       3.383072      0.294725      0.887543
H       0.094371      1.113750     -1.174148
