15
Extracted from Q-Chem output
C      -2.209060     -0.288224     -0.437666
N      -0.877239     -0.164994      0.096023
C      -0.493059     -0.374378      1.377526
N       0.756520     -0.092333      1.657938
C       1.264859      0.261310      0.438130
C       2.529946      0.253017     -0.193088
C       0.252717      0.409627     -0.545917
H      -2.224515     -0.975095     -1.284916
H      -2.876617     -0.671759      0.333343
H      -2.585463      0.682648     -0.770193
H      -1.189129     -0.794978      2.094164
H       2.723319     -0.611335     -0.817522
H       1.409463      0.305263     -1.340887
H       3.423347      0.643311      0.288473
H       0.061438      1.390098     -0.978560
