12
Extracted from Q-Chem output
C      -1.619682     -0.350460      0.927396
C      -0.125695     -0.117969      0.777013
C       0.241396      0.209013     -0.637303
O      -0.476053      0.291450     -1.571708
C       2.498085      0.290551      0.044036
O       1.629918      0.469013     -0.907781
H      -2.189804      0.530109      0.631208
H      -1.953551     -1.182800      0.307879
H      -1.855705     -0.579562      1.966691
H       0.464273     -0.982439      1.086722
H       0.232972      0.694164      1.413190
H       3.453856      0.560399     -0.453650
