18
Extracted from Q-Chem output
C       1.849603     -0.632940      0.007193
C       0.571351      0.076971      0.441159
C       0.559862      1.527169     -0.030702
C      -0.678802     -0.709852     -0.013240
C      -1.996179     -0.160948      0.541107
C      -0.742611     -0.786191     -1.478107
N      -0.793093     -0.829001     -2.623867
H       1.872605     -1.666897      0.359026
H       2.727557     -0.124120      0.408297
H       1.939941     -0.646465     -1.081878
H       0.530623      0.069985      1.536238
H       1.454038      2.044098      0.321153
H      -0.305329      2.075435      0.344380
H       0.550606      1.582602     -1.122396
H      -0.560749     -1.740222      0.337318
H      -2.826623     -0.819149      0.286338
H      -1.935276     -0.088101      1.628221
H      -2.217526      0.827627      0.139762
