10
Extracted from Q-Chem output
C      -0.842154     -0.730480      0.094562
C      -0.269792      0.643180     -0.093336
N       0.840275      0.813231     -0.687634
C       1.820052      0.953349     -1.391125
O      -0.349466     -1.405551      1.241217
H      -1.935366     -0.658313      0.126922
H      -0.569699     -1.358109     -0.754664
H      -0.763244      1.522325      0.306206
H      -0.549242     -0.878263      2.017209
H       2.794107      0.912666     -0.898956
