12
Extracted from Q-Chem output
C      -1.585380      0.527703      0.044574
C      -0.530156     -0.574029      0.038190
C       0.831083     -0.070062     -0.226951
C       2.006807     -0.267517     -0.833432
C       2.259784      0.159040      0.512712
O       1.348026      0.971428      0.987426
H      -1.377337      1.253803      0.829878
H      -1.606015      1.054513     -0.909984
H      -2.572774      0.099685      0.219179
H      -0.731643     -1.318018     -0.735021
H      -0.513980     -1.095896      0.999038
H       2.953727     -0.330600      1.200755
