11
Extracted from Q-Chem output
C       2.702854      1.190317      0.058653
C       1.645096      0.633055     -0.029305
C       0.374348     -0.002184     -0.113907
C      -0.092534     -1.098427     -0.793333
C      -1.512468     -1.100160     -0.365338
N      -1.791105      0.008904      0.554874
N      -0.679729      0.568852      0.636561
H       3.650248      1.671372      0.120117
H      -1.810144     -2.025230      0.142257
H      -2.208652     -0.999532     -1.206941
H      -0.588727      1.392392      1.226641
