11
Extracted from Q-Chem output
C       2.407925      0.564962      1.547550
C       1.447003      0.385236      0.854556
C       0.295721      0.166936      0.049283
C       0.097285      0.327357     -1.333824
C      -1.312646     -0.112091     -1.393381
N      -1.878451     -0.364850     -0.139589
N      -0.879990     -0.195116      0.646715
H       3.270394      0.729146      2.149326
H      -0.645679     -1.021285     -1.666817
H      -1.996680      0.050545     -2.215879
H      -1.005890     -0.368858      1.636829
