12
smiles: [C:1]([C:2](=[C:3]([H:11])[H:12])[H:10])([H:7])([H:8])[H:9].[C:4](=[O:5])=[O:6]
C       -1.39475200       0.21123800       0.70121900
C       -0.61079900       0.50204200      -0.53863900
C        0.51018800       1.20488600      -0.58386800
C        1.88755400      -1.80359900       0.01726000
O        0.91530900      -2.42569400       0.08642600
O        2.85978200      -1.18143900      -0.05192000
H       -0.92232700       0.64630900       1.58295400
H       -1.49074800      -0.86616600       0.85891100
H       -2.40896100       0.61172800       0.62346200
H       -1.01088300       0.09473400      -1.46450700
H        1.03174700       1.37967300      -1.51701900
H        0.94810600       1.63162800       0.31282700
