12
Extracted from Q-Chem output
C      -1.501067      0.442280     -0.009661
O      -0.571751      0.990467     -0.964438
C       0.244247     -0.191873     -0.843865
C       1.431296      0.006453      0.059711
O       0.747691     -0.091858      1.329195
C      -0.651751     -0.760155      0.256026
H      -2.446354      0.153543     -0.487884
H      -1.704604      1.099157      0.837663
H       0.385838     -0.703168     -1.797378
H       2.184775     -0.779423     -0.049212
H       1.899653      0.987427     -0.022058
H       0.120855     -1.061157      1.255446
