19
Extracted from Q-Chem output
C      -2.063920     -1.498963      0.273851
C      -0.667311     -1.296295     -0.298566
C       0.009859     -0.001184      0.168846
C       1.457280      0.085532     -0.332003
C       2.202725      1.321428      0.154561
C      -0.761078      1.169579     -0.339510
O      -1.277681      1.984729      0.528556
H      -2.487941     -2.446642     -0.061833
H      -2.044870     -1.507134      1.366097
H      -2.744933     -0.703491     -0.036539
H      -0.023200     -2.132165     -0.010893
H      -0.707286     -1.294670     -1.391916
H      -0.007424      0.053950      1.268484
H       1.452112      0.057705     -1.425699
H       1.977382     -0.816900      0.001619
H       3.243170      1.303706     -0.173666
H       2.195863      1.382333      1.245375
H       1.750890      2.238938     -0.228752
H      -1.434241      2.194628     -0.606774
