8
smiles: [N:3](=[C:4]=[N:5][H:8])[H:7].[O:1]=[C:2]=[O:6]
O        2.86999800       0.50866400       0.13071700
C        2.27510500      -0.47364900      -0.00388500
N       -0.29283200       0.92374900       0.49855300
C       -1.27121800       0.20154000       0.47306700
N       -2.17341900      -0.60753200       0.57784800
O        1.68020500      -1.45596000      -0.13848700
H       -0.41559800       1.92408300       0.45284200
H       -2.56384900      -1.02297700      -0.25435600
