8
Extracted from Q-Chem output
O       2.271674      0.134066      0.205099
C       1.108602     -0.121627      0.258415
N       0.013538      0.694276      0.049455
C      -1.103498     -0.063259      0.227269
N      -0.825712     -1.275318      0.526566
O       0.571239     -1.336417      0.551668
H       0.078328      1.666761     -0.185992
H      -2.114171      0.301517      0.130578
