8
Extracted from Q-Chem output
O       2.556916      0.164773      0.208877
C       1.616297     -0.498012      0.269271
N      -0.179725      0.950883      0.131708
C      -1.064076      0.030660      0.211555
N      -1.042834     -1.241521      0.327640
O       0.886228     -1.426885      0.354842
H      -0.536165      1.890919      0.044361
H      -2.181326      0.128811      0.196810
