15
Extracted from Q-Chem output
C      -1.658375      0.044004     -0.450411
N      -0.572709     -0.245770      0.466741
C      -0.063543     -1.593754      0.307089
C       1.260007      0.862249     -0.852219
O       2.378510      1.491750     -0.652652
C       0.478393      0.737618      0.428884
H      -2.463380     -0.675207     -0.288531
H      -2.053984      1.041857     -0.248323
H      -1.355979      0.000767     -1.506319
H      -0.873331     -2.309007      0.460992
H       0.702685     -1.789882      1.060919
H       0.374409     -1.773443     -0.686929
H       2.540804      1.729598      0.286251
H       1.161471      0.573338      1.283516
H       0.035774      1.736973      0.571277
