11
smiles: [C:3](=[C:4]([O:5][H:6])[H:11])([H:9])[H:10].[O:1]=[C:2]([H:7])[H:8]
O       -1.79366300       0.24579400      -0.32111500
C       -1.79891900      -0.26463700       0.76027500
C        1.53212000      -0.84838500      -0.60076000
C        1.70474100       0.39159900      -0.16652200
O        0.78726600       1.38617800      -0.16647000
H       -0.03755800       1.06028300      -0.53674800
H       -2.70804200      -0.73540600       1.18128000
H       -0.89471200      -0.29224900       1.39807700
H        0.59000300      -1.19117900      -1.01450800
H        2.34675900      -1.55518300      -0.54568100
H        2.64445500       0.73800300       0.24782500
