11
Extracted from Q-Chem output
O      -1.423636      0.672690     -0.063151
C      -0.963131     -0.314236      0.582657
C       0.758375     -0.825153     -0.362000
C       1.285752      0.434727     -0.183109
O       0.734237      1.487473     -0.676428
H      -0.334188      1.305121     -0.576262
H      -1.372128     -1.313479      0.394176
H      -0.603610     -0.174658      1.612135
H       0.205868     -1.035185     -1.268189
H       1.250368     -1.664169      0.113650
H       2.111173      0.604819      0.512380
