14
Extracted from Q-Chem output
C       1.498435      0.513688      0.246471
C       0.376115      0.363629     -0.560851
C      -0.338392     -0.998719     -0.925394
C      -1.555486     -0.758690     -0.069417
O      -1.035524     -0.595439      1.264570
C      -0.995346      0.496764      0.456919
H       0.684295      1.599243      1.444214
H       2.268119      1.241454      0.026456
H       1.733057     -0.230080      0.999387
H       0.270472      1.099171     -1.353166
H       0.249471     -1.860517     -0.610100
H      -0.543378     -1.052424     -1.993859
H      -2.576713     -1.089540     -0.182020
H      -0.151082      1.640143      1.401567
