12
Extracted from Q-Chem output
C      -1.009651      0.351222      0.593307
C      -0.402584     -0.857351     -0.163527
O      -0.405623     -0.055519     -1.361297
C      -0.075216      1.027922     -0.440936
C       1.315842      0.671703      0.142477
C       1.062107     -0.697832      0.261451
H      -2.061112      0.501176      0.357901
H      -0.802126      0.468976      1.656048
H      -0.867545     -1.835709     -0.257867
H      -0.238491      2.019512     -0.851036
H       1.805492     -0.281749     -0.678055
H       1.695799     -1.433287      0.744933
