21
Extracted from Q-Chem output
C       1.805667     -0.842977      0.739430
C       0.899695     -0.589301     -0.460442
C      -0.178021      0.489405     -0.240519
C       0.457586      1.862055     -0.000296
C      -1.063871      0.574739     -1.520705
C      -1.276527      0.244443      0.727828
C      -1.654800     -1.158202      0.947681
H       2.531233     -1.626759      0.515681
H       2.365820      0.050480      1.019299
H       1.238235     -1.164214      1.615781
H       1.513343     -0.280104     -1.313215
H       0.429816     -1.527877     -0.764859
H       1.178341      2.106010     -0.786644
H       0.977073      1.892648      0.958441
H      -0.314579      2.630961      0.026091
H      -0.439476      0.968353     -2.325021
H      -1.439312     -0.404474     -1.821027
H      -1.909127      1.251497     -1.385213
H      -1.157297     -1.339242      1.917007
H      -1.312631     -1.932441      0.249454
H      -2.717927     -1.271170      1.164578
