11
Extracted from Q-Chem output
C      -1.446941     -0.540749     -0.247845
C      -0.013591     -0.124319     -0.294759
C       1.154960     -1.124670     -0.262858
O       0.805365     -0.385121     -1.423901
C       0.477755      1.007394      0.316066
N       0.839105      2.059873      0.756585
H      -2.071236      0.121378     -0.849537
H      -1.501149     -1.554628     -0.639807
H      -1.814795     -0.544477      0.778822
H       2.107198     -0.710729      0.134477
H       1.443854      2.145792      1.565412
