11
Extracted from Q-Chem output
C      -1.387673     -0.336408     -0.194674
C       0.034767      0.002901     -0.518778
C       1.254424     -0.501813      0.087456
O       0.766915     -0.985764     -1.209787
C       0.452240      1.352587     -0.121509
N       0.790475      1.728410      0.961358
H      -2.018134     -0.147231     -1.064558
H      -1.442899     -1.394979      0.055405
H      -1.749498      0.264995      0.638146
H       2.203876     -0.023046     -0.140612
H       1.076032      0.390090      1.340211
