11
smiles: [C:1]([C:2](=[C:3]=[O:4])[H:10])([H:7])([H:8])[H:9].[C:5](#[N:6])[H:11]
C       -1.57557500      -0.02529900       0.07194800
C       -0.68064000       0.91562300       0.83554700
C        0.52802800       1.23049700       0.44831500
O        1.59943700       1.50835500       0.10346100
C        2.17590900      -1.39685000      -0.93607600
N        1.33817400      -2.12406100      -1.21410200
H       -1.85664200      -0.88213100       0.68733800
H       -1.07988000      -0.40661800      -0.82047800
H       -2.49182000       0.47598100      -0.24611900
H       -1.01355500       1.37900600       1.75540400
H        2.95756500      -0.71665800      -0.67614100
