11
Extracted from Q-Chem output
C      -1.686703     -0.244385     -0.023650
C      -0.369346      0.139790      0.487571
C       0.533131      1.107058      0.374491
O       1.696297      1.402629      0.164225
C       2.065704     -1.085409     -0.495400
N       1.012988     -1.527946     -0.386887
H      -1.971513     -1.223743      0.358217
H      -1.759849     -0.228431     -1.112867
H      -2.411691      0.467371      0.382791
H      -0.226945      1.840815      0.843657
H       3.051869     -0.688348     -0.598590
