10
Extracted from Q-Chem output
O       2.137813     -1.139799     -0.631467
C       1.320401     -0.701011      0.033433
O       1.201672      1.162404      0.460510
C       0.036288      0.862072      0.842660
C      -0.907248     -0.036360     -0.817661
C      -0.231305     -0.484703      0.375207
H      -0.615901      1.498693      1.428687
H      -1.813233     -0.526570     -1.145934
H      -0.389878      0.613452     -1.504847
H      -0.718225     -1.252127      0.970136
