12
Extracted from Q-Chem output
C      -1.590146      0.053759     -0.566989
O      -0.911082     -1.151573     -0.563417
C       0.366794     -1.233460     -0.500169
N       1.202698     -0.219625     -0.290563
C       1.264120      0.532104      0.748542
H      -1.085320      0.784781     -1.194102
H      -2.621611     -0.149396     -0.829148
H      -1.123316      1.041598      0.727636
H       0.758654     -2.207012     -0.768432
H      -0.594252      1.507513      1.176885
H       0.783887      0.275519      1.686338
H       1.950533      1.371986      0.740664
