13
Extracted from Q-Chem output
O      -1.680644      0.465452      1.558858
C      -1.651992     -0.579709      0.620564
C      -0.822442     -0.202579     -0.605073
C       0.540864      0.219714     -0.205998
O       1.341810      0.082572     -1.246430
C       2.655716      0.555727     -1.124849
O       2.971140      1.500102     -0.499833
H      -0.766456      0.735954      1.703417
H      -2.684937     -0.779886      0.331727
H      -0.833297     -0.968938     -1.388970
H      -1.248750      0.716429     -1.039381
H      -1.249297     -1.500561      1.062988
H       3.303272     -0.072073     -1.748309
