12
Extracted from Q-Chem output
O      -0.971534     -0.130883      0.696019
C      -0.176333      0.672463     -0.061621
C      -0.452294      1.937280     -0.330574
C      -0.419555     -1.435729      0.660583
O       0.935223     -1.284897      0.370742
C       1.006329     -0.162695     -0.488919
H       0.237069      2.527111     -0.917165
H      -1.360121      2.399539      0.030040
H      -0.934423     -2.018192     -0.117700
H      -0.533916     -1.904090      1.637409
H       0.912124     -0.466937     -1.539418
H       1.962007      0.337196     -0.343126
