14
Extracted from Q-Chem output
C       2.001831      0.458829     -0.355240
N       1.056941     -0.204154      0.525787
C      -0.180035     -0.449322      0.069102
O      -0.449483     -0.960641     -1.159323
N      -1.288337     -1.022658      0.746266
C      -1.792401     -0.486239     -0.559554
N      -1.505958      0.862952     -0.366420
H       2.022096     -0.062799     -1.309550
H       2.994220      0.409270      0.088790
H       1.730151      1.504795     -0.528588
H       1.090083      0.058700      1.496943
H      -1.631714     -0.411812      1.483976
H      -2.657511     -0.923692     -1.056124
H      -1.397222      1.326917     -1.268430
