13
Extracted from Q-Chem output
C       1.933603      1.292097     -0.275531
O       1.706924      0.132776      0.495831
C       0.593018     -0.588338      0.104752
C      -2.846186     -0.904643      0.946542
C      -1.687477     -0.384854      0.637721
N      -0.639085      0.154415      0.359305
H       2.069195      1.037913     -1.334634
H       1.105292      1.999512     -0.181492
H       2.846512      1.748955      0.101682
H       0.609327     -1.524174      0.666707
H       0.620515     -0.803745     -0.972718
H      -3.108429     -1.063332      1.982614
H      -3.548145     -1.170208      0.169527
