13
Extracted from Q-Chem output
C       2.194742      0.824402     -0.329895
O       1.350985      0.766264      0.829276
C       0.147393      0.334215      0.655619
C      -1.951729     -1.485354      0.536866
C      -2.258474     -0.186850      0.254394
N      -2.202370      0.972173      0.061386
H       1.802423      1.565767     -1.025831
H       3.178596      1.120423      0.021080
H       2.239873     -0.157545     -0.801900
H      -0.457774      0.302286      1.540613
H      -0.148620     -0.032260     -0.310354
H      -2.211656     -1.881092      1.509836
H      -1.879728     -2.191724     -0.279798
