17
Extracted from Q-Chem output
C      -1.955095     -0.192108     -0.234739
C      -1.803550      1.299360      0.100203
C      -0.654533      0.413063      0.032320
C       1.084796     -1.682039     -0.797619
C       1.420803     -0.935148      0.292335
C       1.608657      0.948283      0.121522
C       0.542494      0.168288      0.770900
H      -2.249042     -0.434136     -1.252686
H      -2.396056     -0.847414      0.512921
H      -2.010986      1.990366     -0.711612
H      -2.144358      1.656153      1.070822
H       0.107408     -1.599215     -1.248781
H       1.781775     -2.398789     -1.214162
H       2.278697     -1.187992      0.906354
H       1.551435      1.059376     -0.948493
H       2.321274      1.551168      0.682119
H       0.513099      0.236269      1.861243
