10
smiles: [C:1]1=[C:2]=[N:3][C:4]([H:9])=[N:5][C:6]=1[H:10].[H:7][H:8]
C        0.06035700       1.05544900       0.02660600
C        1.31241900       0.86142200      -0.04605000
N        2.28254000       0.07766600      -0.13461100
C        1.69005000      -1.16638000      -0.16842300
N        0.39284900      -1.34909700      -0.11282500
C       -0.41964100      -0.28280500      -0.01805500
H       -2.70397700       1.81417500       0.29845300
H       -3.42798800       1.66553700       0.38902100
H        2.35747000      -2.01442100      -0.24517900
H       -1.48217000      -0.50177200       0.02463200
