10
Extracted from Q-Chem output
C      -1.359752     -0.278624     -0.051454
C      -0.534304      0.761525      0.030891
N       0.755103      1.009205      0.078744
C       1.422216     -0.133330      0.028800
N       0.855737     -1.342684     -0.057558
C      -0.467531     -1.400280     -0.095129
H      -1.155807      1.923188      0.497561
H      -1.136833      1.970037     -0.326914
H       2.504210     -0.082033      0.060185
H      -0.876460     -2.405948     -0.165226
