17
Extracted from Q-Chem output
C       2.012316     -0.086075     -0.557431
C       0.789193      0.238089      0.261257
O       0.017925      1.314950     -0.370105
C      -1.662440      0.803397     -0.351723
C      -1.494106     -0.136337      0.820732
C      -0.225592     -0.896207      0.439132
O      -0.423364     -1.605795     -0.756643
H       2.646134      0.792230     -0.688593
H       1.724658     -0.488315     -1.529982
H       2.594660     -0.853495     -0.046210
H       1.064910      0.639357      1.237807
H       0.158035      1.281159     -1.321264
H      -2.090531      1.758832     -0.030757
H      -1.381790      0.319940      1.814309
H      -2.345963     -0.819512      0.852764
H       0.118896     -1.597706      1.202797
H      -1.069580     -1.060970     -1.244238
