17
Extracted from Q-Chem output
C       2.051667     -0.094952     -0.551220
C       0.827744      0.272529      0.254375
O       0.137505      1.386607     -0.352680
C      -1.611625      0.909659     -0.318414
C      -1.489378     -0.107788      0.773688
C      -0.203249     -0.855127      0.427027
O      -0.367101     -1.623998     -0.742170
H       2.715349      0.763817     -0.651068
H       1.766308     -0.447081     -1.542143
H       2.594484     -0.900223     -0.053059
H       1.116276      0.628986      1.246578
H      -0.445250      1.039178     -1.163242
H      -2.050091      1.855702     -0.001074
H      -1.436848      0.309665      1.785931
H      -2.338750     -0.794880      0.730065
H       0.116096     -1.539571      1.215561
H      -0.983921     -1.139284     -1.306352
