11
Extracted from Q-Chem output
C      -1.578880     -0.751953     -0.112297
N      -0.353339     -0.356545     -0.076867
C       0.091275      1.039947      0.264733
N       1.513702      0.982393      0.170954
C       1.756127     -0.236245     -0.162305
N       0.714626     -1.107774     -0.333838
H      -1.784954     -1.779104     -0.369246
H      -2.356727     -0.040501      0.117078
H      -0.256008      1.281997      1.271149
H      -0.351565      1.733898     -0.452503
H       2.760351     -0.612222     -0.316062
