15
Extracted from Q-Chem output
C      -2.449259      0.268802     -0.501848
O      -1.210646      0.482319      0.147657
C      -0.546389     -0.682960      0.424463
O       0.174543     -1.287620     -0.621368
C       0.904856     -0.672838      0.446318
C       1.681866      0.569131      0.133316
O       2.994605      0.177885     -0.221288
H      -3.098688     -0.379707      0.097655
H      -2.922964      1.242018     -0.613092
H      -2.302532     -0.181514     -1.487533
H       1.427411     -1.377006      1.090176
H      -1.117502     -1.381651      1.038419
H       1.182922      1.110155     -0.674848
H       1.688356      1.207668      1.027276
H       3.488750      0.956310     -0.479991
