15
Extracted from Q-Chem output
C      -2.718680      0.192851     -0.092949
O      -1.447583      0.374569      0.501141
C      -0.458076     -0.405189     -0.115293
O      -0.213566     -0.282242     -1.376872
C       0.855849     -0.327908      0.548884
C       1.986239      0.301703     -0.141103
O       2.920364      0.711937      0.826727
H      -3.067548     -0.840184      0.030430
H      -3.402509      0.864455      0.422641
H      -2.697042      0.437279     -1.156958
H       1.085601     -0.948141      1.414532
H      -0.661088     -1.502073      0.150070
H       2.412676     -0.416205     -0.853900
H       1.577523      1.116670     -0.764319
H       3.794423      0.733202      0.436628
