12
Extracted from Q-Chem output
O      -1.414826      0.530890     -1.425347
C      -1.691424     -0.240951     -0.303575
C      -0.534958     -0.334472      0.625810
N       0.547036      0.425048      1.135106
N       1.624426      0.407035      0.192797
C       1.447967      0.240607     -1.067916
N       0.088143     -1.034342      1.434242
H      -0.463072      0.393490     -1.631445
H      -1.985804     -1.271038     -0.545368
H      -2.516301      0.219907      0.249947
H       2.497006      0.605932      0.670366
H       2.418658      0.329576     -1.571568
