13
Extracted from Q-Chem output
C       0.557070      0.021506     -0.398013
C       0.662624      0.475925      1.040155
C       0.714624      1.867100      1.423692
C      -0.324001     -1.182452     -0.550249
C      -1.409966     -1.235493     -1.304073
N      -0.420739      1.384060      1.600060
H       1.564723     -0.217489     -0.758604
H       0.181245      0.841529     -1.014762
H       1.029940     -0.274913      1.737664
H       1.222446      2.815449      1.537144
H      -0.032467     -2.061530      0.021124
H      -2.010721     -2.134471     -1.367642
H      -1.740464     -0.379055     -1.882441
