19
Extracted from Q-Chem output
C      -1.724726      1.769069      0.176942
C      -1.354943      0.348575      0.415244
C       0.013392     -2.484340     -0.343068
O       0.670023     -1.462924     -0.900423
C       1.151491     -0.479697     -0.088472
C       1.661170      0.676492     -0.908815
C      -0.117537     -0.065353      0.926160
H      -1.605986      2.045164     -0.880065
H      -1.087842      2.445125      0.753029
H      -2.769121      1.970104      0.430747
H      -2.059854     -0.422959      0.123127
H       0.520446     -3.037082      0.446384
H      -0.585686     -3.039730     -1.051893
H       1.899635     -0.858231      0.617553
H       2.530007      0.387968     -1.502059
H       1.950943      1.498805     -0.253296
H       0.878892      1.027307     -1.583243
H       0.350192      0.670977      1.589686
H      -0.251774     -1.110285      1.314000
