15
Extracted from Q-Chem output
C      -0.828876     -0.501834     -0.397367
C      -1.785439      0.707539     -0.319579
C      -0.819843      1.397387      0.643272
O      -0.746731      2.486627      1.104857
C       0.052576      0.111391      0.739430
C       1.500523      0.195430      0.841377
C       2.224915     -0.866329      0.130582
H      -0.199144     -0.309713      1.729715
H      -0.300556     -0.554421     -1.349230
H      -1.272244     -1.473674     -0.189221
H      -2.740917      0.500083      0.165839
H      -1.972133      1.257623     -1.241707
H       3.234634     -0.566428     -0.153024
H       2.373625     -1.596869      0.945352
H       1.718117     -1.387818     -0.691527
