11
Extracted from Q-Chem output
O      -0.868417      2.009483     -0.606198
C      -0.343451      1.006114     -0.047238
C      -1.108093     -0.179330     -0.080613
C      -0.091775     -1.248570      0.020142
C       1.158072     -0.779417      0.210060
C       1.138531      0.691696      0.273727
O       2.007306      1.490708      0.475492
H      -2.043836     -0.237827      0.466155
H      -1.557740      0.961150     -0.955377
H      -0.336370     -2.301902     -0.046868
H       2.061771     -1.360819      0.310474
