17
Extracted from Q-Chem output
C       1.894614      0.430281      0.178330
C       0.507466     -0.108559     -0.078981
C       0.203918     -1.501206      0.495143
C       0.183803     -1.971201     -0.957930
C      -1.979488      0.540739     -0.304589
C      -0.556930      0.969589      0.028666
O       0.458359     -0.759682     -1.404371
H       2.117096      1.259618     -0.495151
H       2.646875     -0.345613      0.032150
H       1.964541      0.791677      1.206237
H      -0.742251     -1.639915      1.017242
H       1.001259     -1.959273      1.082451
H      -2.040290      0.110617     -1.305034
H      -2.363390     -0.196008      0.402721
H      -2.646969      1.402417     -0.271083
H      -0.259117      1.790122     -0.631415
H      -0.511180      1.363872      1.048700
