16
Extracted from Q-Chem output
C       1.570126     -0.074379     -1.376404
N       1.848198     -0.031533      0.061635
C       1.181861      0.448562      1.093861
O      -0.059027      0.926456      1.137431
C      -1.044608      0.792448      0.095866
C      -1.819327     -0.496506      0.270874
O      -1.037820     -1.646335      0.035294
H       2.454024     -0.472424     -1.871448
H       0.730866     -0.743205     -1.574416
H       1.355906      0.914170     -1.789096
H       2.442725      0.585369      0.969757
H      -1.712787      1.644858      0.227249
H      -0.596599      0.849770     -0.892671
H      -2.263996     -0.517102      1.272411
H      -2.632950     -0.518304     -0.457790
H      -0.419041     -1.757890      0.761416
