15
Extracted from Q-Chem output
C      -0.416103     -1.375267      0.684085
C      -0.572013     -0.146866     -0.186061
O      -1.231096     -0.344683     -1.399860
C      -0.860217      1.185382      0.453489
O      -0.389755      2.247156     -0.359422
C       0.745934     -0.766052      0.023012
C       2.033725     -0.794223     -0.233685
H      -0.792460     -2.302179      0.266026
H      -0.545356     -1.267766      1.755998
H       2.680782     -1.549830      0.197499
H      -1.013415      0.402690     -1.964656
H      -0.424424      1.227612      1.457531
H      -1.940267      1.321714      0.534947
H       0.569782      2.236669     -0.333490
H       2.492197     -0.070872     -0.899354
