15
Extracted from Q-Chem output
C      -0.185462     -1.388013      0.609543
C      -0.376237     -0.129794     -0.264906
O      -1.061564     -0.376393     -1.452125
C      -0.870516      1.113954      0.443760
O      -0.737656      2.243963     -0.394899
C       1.013417     -0.483257     -0.159189
C       2.282918     -0.808928     -0.103252
H      -0.574601     -2.276407      0.124922
H      -0.406080     -1.259448      1.664239
H       1.264599     -1.625649      0.516903
H      -1.129551      0.465288     -1.915434
H      -0.342028      1.243269      1.392983
H      -1.937857      1.001783      0.643412
H       0.189026      2.492147     -0.431419
H       3.029392     -0.245913     -0.661564
