12
Extracted from Q-Chem output
N      -2.736548     -0.988401     -1.115118
C      -1.992327     -0.222779     -0.696519
C      -1.002442      0.721456     -0.190967
C      -0.113449      0.128746      0.904188
C       1.282937     -0.552134     -0.039962
N       1.193451      0.677367      0.750410
H      -0.459829      1.171468     -1.030546
H      -1.526359      1.535085      0.320482
H       0.304195     -1.154006      0.291125
H       1.279726     -0.389107     -1.111452
H       2.027311     -1.252507      0.325208
H       1.710960      0.543384      1.610900
