16
Extracted from Q-Chem output
C       1.891312      0.030080     -0.715387
C       1.014018      0.186743      0.501330
C      -0.302950      0.842816      0.344039
C      -1.936487     -0.554352      0.309100
O      -2.174864     -0.588614     -1.034907
C      -0.107919     -0.821978      0.695478
H       2.403939      0.963320     -0.961554
H       1.296329     -0.264333     -1.583371
H       2.650095     -0.739218     -0.556314
H       1.548819      0.455406      1.407761
H      -0.565531      1.187600     -0.649517
H      -0.631039      1.481767      1.152525
H      -2.373134      0.331434      0.781422
H      -2.404859      0.273301     -1.403765
H      -0.228827     -1.163649      1.712939
H      -0.058462     -1.624208     -0.030005
