16
Extracted from Q-Chem output
C       2.337925     -0.847461      0.171216
C       1.191458      0.104402      0.229492
N       1.049421      1.085265     -0.551196
O       0.290931     -0.275477      1.177984
C      -0.949821      0.249682      1.222046
C      -1.427452     -0.038327     -1.201548
C      -1.845785      0.578444      0.018954
H       2.768999     -0.981121      1.164196
H       1.996173     -1.824358     -0.177604
H       3.091232     -0.464781     -0.511460
H       0.241026      1.647972     -0.301862
H      -1.446924     -0.186710      2.085253
H      -1.165745      0.533818     -2.080072
H      -1.188978     -1.094617     -1.209016
H      -2.082148      1.641764     -0.066200
H      -2.748615      0.074694      0.402669
