11
Extracted from Q-Chem output
N       2.168796     -0.207760      0.300923
C       0.968250     -0.059661     -0.013835
C      -0.089234     -1.103012      0.041062
C      -1.436782     -0.633509      0.402424
C      -1.519492      0.789793      0.488530
N      -0.712914      1.603737     -0.130835
O       0.510141      1.168128     -0.495768
H       2.695701      0.657530      0.197647
H       0.222899     -1.929347      0.686189
H      -0.213843     -1.582072     -0.942807
H      -2.423522      1.282635      0.828429
