17
Extracted from Q-Chem output
C      -1.818294      1.259727     -0.121366
C      -1.458662     -0.186078      0.102466
C      -0.890986     -1.019264     -0.990491
C      -0.021000     -0.665129      0.199426
C       1.096180      0.276779      0.068165
C       2.370976      0.011379      0.528289
C       3.329446     -0.669267      1.087428
H      -2.851373      1.339155     -0.465298
H      -1.725000      1.841537      0.797760
H      -1.190800      1.726414     -0.882171
H      -2.120138     -0.703911      0.788329
H      -1.195725     -2.052271     -1.091327
H      -0.658450     -0.523730     -1.925643
H       0.171511     -1.468612      0.899310
H       0.939789      1.186840     -0.501272
H       2.543093      0.216516     -0.618778
H       3.495467     -0.578574      2.161152
