14
smiles: [C:2]12=[C:4]([C:3]1([H:8])[H:9])[C:5]([H:11])([H:12])[C:6]2([H:13])[H:14].[O:1]([H:7])[H:10]
O        0.12084700       1.19460700       2.56789100
C        0.94903600      -0.08669300      -0.39377800
C        0.80970000       0.51779300      -1.75182600
C       -0.18147400       0.59908400      -0.63892200
C       -1.09149300      -0.51960600      -0.10575100
C        0.20161100      -1.30390600       0.17598200
H        0.46131700       1.23230800       1.67316400
H        1.39167600       1.41070400      -1.93503500
H        0.63255300      -0.09163800      -2.64021900
H       -0.48316300       1.93449200       2.64223200
H       -1.70577200      -0.23142800       0.74476500
H       -1.73129400      -0.94325600      -0.88114400
H        0.44045200      -1.53154100       1.21276500
H        0.33981500      -2.20133400      -0.42866600
