8
Extracted from Q-Chem output
C       1.575963      0.253645     -0.178673
N       0.630139      0.969436      0.067577
N      -0.598951      1.205963      0.031001
C      -1.296581      0.004889      0.203869
N      -0.705009     -1.019498     -0.354249
N       0.245675     -1.456261     -0.842717
H       2.427145      0.086152      0.469614
H      -2.277151     -0.052085      0.636778
