7
Extracted from Q-Chem output
N       2.184983     -0.972509      0.029832
C       1.217085     -0.360986      0.018654
C       0.001141      0.453466      0.005715
C      -1.218896     -0.354243     -0.027553
N      -2.189901     -0.960335     -0.054289
H      -0.013787      1.086254      0.895597
H       0.019376      1.108354     -0.867956
