16
smiles: [C:1]([C:2](=[C:3]([H:11])[H:12])[H:10])([H:7])([H:8])[H:9].[C:4](=[C:5]([O:6][H:16])[H:15])([H:13])[H:14]
C        1.79041700      -0.76165000      -0.31024700
C        1.37566300      -0.72471500       1.12604100
C        1.11706100       0.37526300       1.81592600
C       -2.48382900       0.71737300      -1.73476200
C       -1.62154900       0.59526700      -0.73986400
O       -1.68957000      -0.41804800       0.16376700
H        1.08202600      -1.34253400      -0.90659200
H        1.85315000       0.24165900      -0.73389000
H        2.76573800      -1.24290500      -0.42058800
H        1.28749600      -1.68777300       1.62392700
H        0.82088500       0.33512300       2.85714800
H        1.19199000       1.35863800       1.36264700
H       -2.38757800       1.53942900      -2.42841400
H       -3.28794500       0.00640900      -1.87328400
H       -0.81084500       1.30440300      -0.59347600
H       -0.98200500      -0.33202300       0.80230000
