16
Extracted from Q-Chem output
C      -2.575244      0.127759      0.836183
O      -1.339568     -0.423723      0.461650
C      -0.671999      0.333330     -0.518919
C       0.666151     -0.315302     -0.788012
N       1.455292     -0.370868      0.435643
C       2.762165     -0.244036      0.585315
O       3.322569     -0.037319     -0.623408
H      -2.452939      1.129242      1.268101
H      -3.256583      0.198164     -0.021262
H      -3.014548     -0.530382      1.584154
H      -0.528626      1.365681     -0.168031
H      -1.261349      0.368530     -1.445880
H       1.212791      0.257180     -1.535183
H       0.511986     -1.324174     -1.181119
H       0.936022     -0.566359      1.275062
H       4.262380      0.060979     -0.470020
