16
Extracted from Q-Chem output
C      -2.488380      0.247701      0.887941
O      -1.325412     -0.415239      0.463916
C      -0.651258      0.262063     -0.569192
C       0.622104     -0.494233     -0.871150
N       1.476218     -0.563001      0.303161
C       2.721785     -0.122328      0.341464
O       3.260943      0.390524     -0.740008
H      -2.258053      1.247170      1.278275
H      -3.211223      0.352026      0.068809
H      -2.936392     -0.348816      1.681124
H      -0.414621      1.290285     -0.261311
H      -1.277879      0.311682     -1.470971
H       1.182535      0.005145     -1.661134
H       0.379272     -1.505215     -1.207202
H       1.076914     -0.930019      1.149606
H       3.871953      0.300957      0.300942
