11
Extracted from Q-Chem output
C      -1.671556     -0.359292     -0.020806
C      -0.205569     -0.159036     -0.041489
C       0.601225      0.865954      0.243297
N       1.886875      0.382081      0.011463
C       1.900337     -0.892780     -0.401789
O       0.583178     -1.211898     -0.428993
H      -1.938411     -1.171875      0.656962
H      -2.171354      0.549336      0.311442
H      -2.038987     -0.617747     -1.015374
H       0.387539      1.865296      0.578628
H       2.734106      0.906334      0.130305
