11
Extracted from Q-Chem output
C      -1.629145     -0.371123     -0.079938
C      -0.175430     -0.105666     -0.002446
C       0.560049      0.938472      0.410647
N       1.898904      0.546063      0.381998
C       1.950267     -0.717698     -0.115380
O       0.667420     -1.098980     -0.387486
H      -1.897476     -1.198445      0.579143
H      -2.192333      0.511199      0.218331
H      -1.912816     -0.647666     -1.096420
H       0.245947      1.904420      0.767470
H       2.532647      0.286801     -0.675161
