11
Extracted from Q-Chem output
N      -1.608118     -0.264652     -0.235158
C      -0.312077     -0.265909      0.385995
C       0.101361      1.187640      0.606271
O       1.147304      1.642042      0.247888
C       1.798649     -0.749240     -0.728890
O       2.861668     -0.667218     -1.188423
N       0.698554     -1.017530     -0.307754
H      -2.027244     -1.182858     -0.212124
H      -1.547843      0.030340     -1.201047
H      -0.663929      1.793230      1.124815
H      -0.433559     -0.698941      1.386056
