13
Extracted from Q-Chem output
O      -2.310516     -0.192568      0.109436
C      -1.026740     -0.093565      0.539176
C       0.161838     -0.660179     -0.570850
O      -0.297412     -0.159650     -1.729478
C      -0.218311      0.966681      0.015552
C       1.142092      0.361497      0.034599
O       1.638672      0.116618      1.316131
H      -2.233306     -0.162578     -0.863085
H      -0.824410     -0.480309      1.530406
H       0.366220     -1.736171     -0.415268
H      -0.550709      1.835283     -0.541704
H       1.850760      0.785540     -0.673634
H       2.299984     -0.576123      1.253433
