12
Extracted from Q-Chem output
O       1.884842     -1.620532     -0.137061
C       1.469999     -0.362450      0.166078
C       0.233359      0.089929      0.088951
C      -1.114916     -0.458377     -0.302251
O      -1.718600      0.813821     -0.019414
C      -0.457707      1.398767      0.362039
H       2.294881      0.260141      0.490719
H       1.135970     -2.150437     -0.420865
H      -1.237805     -0.741879     -1.354293
H      -1.520328     -1.253329      0.334735
H      -0.466653      1.736369      1.403122
H      -0.187480      2.234996     -0.290362
