12
Extracted from Q-Chem output
O       2.342186     -1.253293      0.228240
C       1.300673     -0.744718      0.534801
C       0.330521     -0.135785     -0.431027
C      -1.138143     -0.541581     -0.203203
O      -1.498148      0.776450      0.222742
C      -0.174897      1.262395     -0.024220
H       0.985739     -0.693882      1.601161
H       0.705295     -0.233996     -1.447120
H      -1.669334     -0.842503     -1.109437
H      -1.312199     -1.286089      0.579793
H       0.277288      1.690383      0.875750
H      -0.148982      2.002621     -0.827480
