12
Extracted from Q-Chem output
O       1.785963     -1.601437     -0.135209
C       1.331739     -0.610478      0.524588
C       0.338093      0.039645     -0.226293
C      -1.112833     -0.509401     -0.245815
O      -1.618942      0.761703      0.171755
C      -0.320343      1.369995      0.073724
H       1.753470     -0.377911      1.504948
H       1.092642     -0.995130     -0.998000
H      -1.494034     -0.778741     -1.234634
H      -1.337514     -1.310870      0.464004
H      -0.017537      1.859136      1.006134
H      -0.286524      2.099024     -0.741643
