14
smiles: [H:7][H:8].[O:1]=[C:2]1[C@@:3]2([H:9])[C:4]([H:10])([H:11])[C:5]([H:12])([H:13])[C@@:6]12[H:14]
O        1.69960400      -1.63275600      -0.23760600
C        0.82706100      -0.83087200      -0.07442200
C        0.54792200       0.59042100       0.00976700
C       -0.61521900       1.00249900      -0.88513400
C       -1.52196000      -0.10685700      -0.29913800
C       -0.41483000      -0.58398300       0.63440700
H        2.30407400      -0.89523800       2.47618700
H        2.13625800      -0.38754700       2.99431700
H        1.23283500       1.27455500       0.49757300
H       -0.41084200       0.96666000      -1.95590400
H       -0.98659200       1.99521500      -0.63731700
H       -2.36558600       0.31205800       0.24629700
H       -1.89802400      -0.86034000      -0.99221700
H       -0.55870900      -0.90848600       1.65863800
