15
Extracted from Q-Chem output
C       2.020248     -0.026042      0.064562
C       0.529886     -0.028434      0.127804
C      -0.502482     -1.129971     -0.253397
C      -1.448086     -0.036009     -0.676436
C      -1.431385     -0.503925      0.752091
C      -0.320955      0.450531      1.291236
C      -0.383793      1.036697     -0.440866
H       2.406511      0.922935      0.442169
H       2.428704     -0.823405      0.688308
H       2.381663     -0.170010     -0.956543
H      -0.413076     -2.144016     -0.609874
H      -2.281352     -0.070220     -1.361916
H      -2.264181     -0.931039      1.291071
H      -0.689885      1.613057      0.639056
H      -0.036030      1.869331     -1.045628
