15
Extracted from Q-Chem output
C       2.263443      0.576003     -0.613005
C       1.047153     -0.149453     -0.229770
C      -1.441128     -0.436949      1.343080
N      -1.446131      0.187358      0.033292
C      -0.160303      0.631731     -0.480285
C      -1.664484     -1.243236      0.125472
H       2.156691      1.467157     -1.248804
H       3.054250     -0.080593     -0.977694
H       2.620045      0.912067      0.375952
H      -2.266734     -0.173193      1.993446
H      -0.476778     -0.565573      1.827808
H      -0.036335      1.698615     -0.235163
H      -0.206109      0.614371     -1.587766
H      -0.846590     -1.892106     -0.172252
H      -2.661831     -1.575130     -0.137836
