15
Extracted from Q-Chem output
C       1.753258     -0.110204     -0.192822
C       0.264105     -0.016483     -0.029382
C      -0.585036     -0.020448      1.254853
N      -1.655922      0.103923      0.181828
C      -0.703356      1.100365     -0.461139
C      -0.842469     -0.946139     -0.559345
H       2.031413     -0.077779     -1.248549
H       2.133298     -1.043424      0.228317
H       2.253043      0.718149      0.313899
H      -0.644783     -0.948838      1.826790
H      -0.523792      0.849166      1.912657
H      -0.651803      2.056046      0.064863
H      -0.877540      1.244323     -1.529651
H      -1.027389     -0.962943     -1.635604
H      -0.923028     -1.945716     -0.126715
