19
Extracted from Q-Chem output
C      -2.178715     -1.059483      0.136895
C      -0.936498      1.263317     -0.080210
C      -0.132633      0.555017      0.885327
C       1.225173      0.311353      0.205436
C       1.841778     -1.059991      0.449180
C       0.926254      0.636048     -1.226657
C      -0.280107      1.224974     -1.350750
H      -1.446486     -0.885937     -0.626627
H      -2.422413     -0.330234      0.886419
H      -2.937195     -1.809536     -0.072733
H      -1.797271      1.874615      0.147168
H      -0.118480      0.943763      1.902846
H      -0.648984     -0.503895      0.984478
H       1.923030      1.076426      0.572849
H       1.160793     -1.849068      0.124814
H       2.046752     -1.208451      1.511089
H       2.782682     -1.170588     -0.093494
H       1.620088      0.439828     -2.034302
H      -0.708274      1.602256     -2.269686
