14
Extracted from Q-Chem output
O       1.347949     -0.565875     -0.248905
C       0.853935      1.018741     -1.191130
C      -0.037749     -0.416406      0.199117
C      -0.730084     -1.364947      1.061067
N      -0.207710     -0.072282      1.550571
C      -0.527947      0.533985     -0.910610
O      -1.206996      1.617217     -0.578594
H       1.914890     -0.404686      0.518342
H       1.203229      1.752315     -0.473385
H       1.326110      1.019932     -2.172069
H      -0.222961     -2.234865      1.460223
H      -1.799112     -1.472199      0.908264
H      -0.911506      0.667221      1.590689
H      -0.925267     -0.066655     -1.754827
