18
Extracted from Q-Chem output
C      -1.589455      0.764564      0.209765
C      -0.558672     -0.194866      0.778908
C      -0.559781     -1.579450      0.087532
C       0.636982     -1.120999     -0.770251
C       0.894871      0.001076      0.257153
C       1.363115      1.357001     -0.227786
H      -1.430721      1.784464      0.567660
H      -1.562361      0.788055     -0.882937
H      -2.596268      0.460148      0.504741
H      -0.649880     -0.217479      1.867541
H      -0.285486     -2.380774      0.775088
H      -1.473565     -1.867850     -0.435150
H       0.315085     -0.715978     -1.732478
H       1.438968     -1.837385     -0.951184
H       1.586547     -0.368112      1.019960
H       0.696991      1.762077     -0.992871
H       1.412122      2.079905      0.590505
H       2.361510      1.285603     -0.666196
