18
Extracted from Q-Chem output
C      -1.601720      0.736762      0.330646
C      -0.714042     -0.309663      0.950228
C      -0.445307     -1.566450      0.126751
C       0.674858     -1.037674     -0.765521
C       1.320633     -0.053633      0.195456
C       1.509590      1.317697     -0.354500
H      -1.551651      1.681366      0.875228
H      -1.346408      0.930533     -0.712738
H      -2.641586      0.398221      0.350414
H      -0.987621     -0.494637      1.993157
H      -0.072254     -2.359478      0.775996
H      -1.323207     -1.945190     -0.400675
H       0.250875     -0.558591     -1.661182
H       1.384149     -1.795439     -1.106979
H       0.467043      0.004967      1.205307
H       0.725254      1.687352     -1.032683
H       1.722361      2.066419      0.409545
H       2.419082      1.222483     -0.963001
