15
Extracted from Q-Chem output
O      -2.426608      0.283237      0.183476
C      -1.319100     -0.489443      0.573935
C      -0.004284      0.147797      0.171283
C       1.214598     -0.645465      0.599543
O       2.416044     -0.015056      0.231584
C       0.135588      1.312899     -1.946120
O       0.013006      0.212072     -1.285165
H      -2.515857      0.236075     -0.771089
H      -1.355179     -0.562940      1.662636
H      -1.373879     -1.506171      0.165955
H       1.219163     -0.719037      1.688894
H       1.152543     -1.662447      0.193621
H       2.528961     -0.091540     -0.718530
H       0.055919      1.177995      0.536830
H       0.213493      2.140763     -1.192401
