15
Extracted from Q-Chem output
O      -2.353180      0.319804     -0.079588
C      -1.302675     -0.317652      0.587336
C       0.063077      0.042989      0.021352
C       1.241395     -0.772730      0.529853
O       2.474621     -0.173543      0.258726
C       0.383402      1.386795     -1.250209
O       0.038701      0.031753     -1.402611
H      -2.285210      0.091729     -1.011689
H      -1.358986     -0.027756      1.637380
H      -1.395800     -1.411635      0.534459
H       1.160521     -0.887872      1.614479
H       1.161883     -1.767887      0.072143
H       2.411081      0.299078     -0.580694
H       0.341073      1.132295      0.304108
H      -0.591104      1.922800     -1.168638
