11
Extracted from Q-Chem output
C       1.532151     -0.312737     -0.161680
N       0.409747     -0.962030     -0.352125
C      -0.692403     -0.202431     -0.306920
N      -0.647504      1.031122      0.100115
C      -1.958040     -0.869370     -0.573991
N      -2.983011     -1.334434     -0.793440
H       2.406155     -0.891549      0.122997
H       1.703320      0.659245     -0.627138
H       1.269252      0.533396      1.257570
H       0.525463      0.941525      1.049466
H      -1.557521      1.424405      0.311781
