19
Extracted from Q-Chem output
C       2.020443     -0.303030     -1.343875
C       1.367078     -0.471153     -0.022024
O       0.514258      1.272047     -0.025940
C      -0.823861      1.592349      0.280857
C      -0.735013      0.149137      0.389123
C      -0.722347     -0.434058      1.764225
C      -1.311671     -0.658659     -0.725979
H       2.533130      0.652788     -1.502570
H       2.779746     -1.098546     -1.355662
H       1.347984     -0.494881     -2.183811
H       2.031540     -0.101976      0.767855
H      -1.373140      2.015986     -0.561569
H      -0.938630      2.175834      1.196221
H      -0.061039      0.133058      2.418654
H      -0.400749     -1.472013      1.745475
H      -1.738806     -0.360059      2.169523
H      -0.971825     -1.690235     -0.677993
H      -1.037822     -0.236481     -1.692672
H      -2.404125     -0.617756     -0.641833
