11
Extracted from Q-Chem output
N       0.967912      0.365874     -0.459942
C       1.409424     -0.873359     -0.346136
C       0.206606     -1.594564      0.174080
C      -0.833750     -0.775873      0.327016
C      -0.408682      0.593298     -0.095607
N      -0.654639      1.592706      0.996391
O       0.294669      2.246653      1.278004
H       1.559868      1.120768     -0.762843
H       0.215654     -2.652592      0.393933
H      -1.828527     -0.992283      0.689398
H      -1.005180      0.971849     -0.935461
