11
Extracted from Q-Chem output
N       2.383600     -0.152699      0.043640
C       1.141236      0.057629      0.083588
C       0.164056     -1.018359      0.135047
C      -1.134371     -0.724719      0.176739
C      -1.514696      0.669342      0.168608
N      -0.695286      1.646081      0.124695
O       0.647912      1.345200      0.082003
H       2.905917      0.719637      0.012918
H       0.557298     -2.025444      0.136921
H      -1.900721     -1.487445      0.217815
H      -2.554945      0.970779      0.200595
