14
Extracted from Q-Chem output
O       2.021873     -0.974996     -1.031978
C       1.797826     -0.171403     -0.166637
C       0.873558      1.006502     -0.343226
C      -0.538912      0.683668      0.127399
C      -1.234572     -0.584235     -0.435043
C      -1.203398     -0.946908      1.017775
N      -0.610860      0.082183      1.490834
H       0.849522      1.279361     -1.400265
H       2.255592     -0.283595      0.835236
H       1.252481      1.850205      0.239417
H      -1.154744      1.583433      0.071112
H      -0.619425     -1.204408     -1.088850
H      -2.218063     -0.441122     -0.884277
H      -1.551962     -1.805808      1.588025
