8
smiles: [C:4](=[C:5]=[O:6])([H:7])[H:8].[O:1]=[C:2]=[O:3]
O        3.33703800      -0.48021900       0.08968000
C        2.29745000      -0.98636900       0.09075100
O        1.25784400      -1.49254700       0.09182400
C       -1.85018100       0.29419600      -0.03360100
C       -0.74542200       0.99186500      -0.08520000
O        0.23069000       1.60819300      -0.13064500
H       -1.79281200      -0.78144500       0.02575200
H       -2.79943000       0.80627300      -0.05044600
