13
Extracted from Q-Chem output
N      -1.171517     -1.317792     -1.090434
C      -1.329698     -0.161830     -0.431067
O      -1.349976      0.889685     -1.185126
C      -0.100855      1.163320      0.064911
C       1.060595      0.289661      0.475943
O       0.718916     -0.579812      1.522839
H      -1.205002     -2.184458     -0.587217
H      -1.141591     -1.332250     -2.103624
H      -0.645495      1.586535      0.897177
H       0.301533      1.927264     -0.606244
H       1.438780     -0.250072     -0.400880
H       1.842170      0.999760      0.790974
H       1.504097     -1.061006      1.786818
