7
smiles: [N:3]#[N:4].[O+:1](=[C-:2][H:6])[C:5][H:7]
O        0.12816600      -0.95512500       0.09316900
C        1.36435200      -0.67331200       0.04365100
N       -0.15279900       2.94232000      -0.91029800
N       -0.49238500       2.11928600      -0.28446500
C       -1.11924000      -1.02658700      -0.12814600
H        1.87921900      -1.64531700       0.18481000
H       -1.58723300      -0.94187800       0.87365800
