14
Extracted from Q-Chem output
O       1.299875      0.919688      1.575527
C       0.642141      0.594786      0.494224
C       0.720738      0.918146     -0.949466
C      -0.635052      0.870756     -0.249418
C      -1.138320     -0.552669     -0.196254
C       0.113926     -1.165377      0.470248
H       0.893842     -0.352909      1.325756
H       1.123350      1.914700     -1.091377
H       0.970767      0.206186     -1.728823
H      -1.265887      1.746231     -0.177379
H      -2.009859     -0.649020      0.449807
H      -1.371849     -1.000841     -1.164749
H      -0.118915     -1.700419      1.397133
H       0.770499     -1.765838     -0.153606
