17
Extracted from Q-Chem output
C       1.774603     -0.005925     -0.417560
C       1.120724     -1.077902      0.388623
C      -0.014540     -0.476296      1.211594
C      -0.703599     -0.018228     -0.113281
O      -1.824133     -0.828098     -0.425830
C      -1.049199      1.448290     -0.273122
C       0.479698     -0.580958     -0.893883
H       1.830382      1.008467     -0.034915
H       2.642661     -0.310804     -0.988485
H      -0.187361      2.088261     -0.080699
H       1.599126     -2.029221      0.574936
H       0.272791      0.304230      1.921461
H      -0.626860     -1.221881      1.717015
H      -2.556481     -0.559761      0.133858
H      -1.407561      1.640103     -1.285958
H      -1.834962      1.735370      0.432579
H       0.377874     -1.080142     -1.847887
