15
Extracted from Q-Chem output
C      -1.872036     -0.140751     -0.479514
C      -0.520398     -0.779936     -0.188902
C       0.635129      0.208863     -0.244072
C       0.691403      1.162383      0.942161
O      -0.042464      1.104451      1.886478
C       1.996117     -0.464659     -0.320460
O       3.004841      0.108907     -0.619431
H      -2.108032      0.630401      0.254033
H      -2.667672     -0.885955     -0.446620
H      -1.885328      0.315528     -1.472494
H      -0.329820     -1.578006     -0.913217
H      -0.537802     -1.248271      0.798730
H       0.579758      0.850035     -1.133030
H       1.492789      1.923063      0.876656
H       2.005958     -1.542901     -0.057823
