17
Extracted from Q-Chem output
C      -1.632324     -0.762012      0.356403
C      -0.562541      0.296540      0.200884
C      -0.842092      1.081163     -1.087516
N       0.716895     -1.021173      0.919438
C       1.290306      0.022612     -0.194109
C       2.051724     -0.637126      0.909048
H      -1.470627     -1.566888     -0.361301
H      -1.627824     -1.192179      1.352376
H      -2.609556     -0.314211      0.149742
H      -0.515351      0.966894      1.054743
H      -0.850937      0.425376     -1.960310
H      -0.130661      1.886730     -1.264871
H      -1.836954      1.525556     -1.002593
H       1.372673      1.101669     -0.099070
H       1.419435     -0.373399     -1.192715
H       2.756444     -1.378076      0.524585
H       2.467864      0.001035      1.699662
