12
Extracted from Q-Chem output
O       0.637844      0.865043      0.480735
C       1.940663      0.038668     -0.329237
C       1.011406     -0.863802     -0.939739
C      -0.022164     -0.343633     -0.319519
C      -1.492653     -0.426930     -0.198484
O      -2.181456      0.683943     -0.736184
H       0.612570      0.710448      1.435094
H       2.578258     -0.306089      0.484217
H       2.383546      0.844204     -0.911326
H      -1.778536     -1.365871     -0.686836
H      -1.805457     -0.489164      0.847171
H      -1.870520      0.814036     -1.635153
