10
Extracted from Q-Chem output
O       2.331063     -1.017461      0.385718
C       1.271577     -0.634338      0.119143
O       1.148682      1.167563     -0.019280
C      -0.078218      0.996370      0.328412
C      -0.907767      0.236654     -0.593872
C      -0.096256     -0.856570      0.082797
H      -0.461703      1.375601      1.278067
H      -1.957469      0.161257     -0.326811
H      -0.739353      0.393625     -1.656552
H      -0.502820     -1.806681      0.400545
