19
smiles: [C:1]([C:2]1([C:3]([H:12])([H:13])[H:14])[C@@:4]2([H:15])[C:5]([H:16])([H:17])[C@@:6]12[H:18])([H:8])([H:9])[H:10].[O:7]([H:11])[H:19]
C        1.19918300       1.34170100      -0.48971600
C        0.34541500       0.09169200      -0.44892900
C        1.08997100      -1.11243600       0.09080800
C       -0.66999900      -0.03360400      -1.54284500
C       -1.70321500      -0.86435600      -0.86207500
C       -1.10915800       0.31198300      -0.16618500
O       -0.14983400       0.49070000       2.89069200
H        0.64191600       2.19255100      -0.88655100
H        1.55134300       1.60290700       0.51086800
H        2.07894100       1.18874600      -1.11905300
H       -0.49158900       0.29756200       2.01675800
H        1.43546600      -0.91978700       1.10963700
H        1.96645800      -1.32447800      -0.52675500
H        0.47459900      -2.01066100       0.11234900
H       -0.76610800       0.55594500      -2.44074700
H       -2.72124200      -0.74127600      -1.21783600
H       -1.47635600      -1.87606400      -0.53660200
H       -1.59872600       1.21170900       0.17114800
H       -0.21893000      -0.33096300       3.37858200
