16
Extracted from Q-Chem output
C      -0.902479      1.473957      0.667893
C      -0.983145     -0.006671      0.926897
C       1.192072     -0.421695     -2.046397
C       1.289797     -0.628570     -0.766519
C       1.376445     -0.828458      0.515614
C       0.248904     -0.656563      1.506559
N      -1.998041     -0.732786      0.714261
H      -0.019054      1.717038      0.075131
H      -0.813998      2.010115      1.616603
H      -1.788669      1.834911      0.146186
H       1.423926      0.545561     -2.478034
H       0.879042     -1.212784     -2.717848
H       2.324900     -1.175882      0.915988
H      -0.037796     -1.635113      1.896292
H       0.615508     -0.061412      2.349851
H      -2.759422     -0.183767      0.317442
