16
Extracted from Q-Chem output
C      -1.023446     -0.750330      1.379885
C      -0.635919      0.477383      0.606117
C       0.845391      0.830216      0.451916
C       0.973308      0.621568     -1.031047
C       0.556636     -0.740646     -1.466862
C      -0.464873      0.348878     -1.474231
H      -0.742807     -0.618731      2.430001
H      -2.097859     -0.934921      1.339200
H      -0.506428     -1.640333      1.018840
H      -1.243247      1.343234      0.874060
H       1.021049      1.867989      0.736428
H       1.504149      0.203112      1.061527
H       1.643473      1.216649     -1.640084
H       0.555270     -1.573040     -0.772813
H       0.836876     -1.023142     -2.476168
H      -1.264334      0.440461     -0.594688
