13
smiles: [C:1]([O:2][H:13])([H:6])([H:7])[H:8].[C:3]([C:4](=[O:5])[H:12])([H:9])([H:10])[H:11]
C        2.02957300       1.27747900       0.01783300
O        1.04383800       0.82656800       0.92181300
C       -1.11842700      -1.56811600      -0.13303200
C       -1.86628700      -0.35246300      -0.59022200
O       -1.49975600       0.77722400      -0.41917800
H        2.99804700       1.07666500       0.47469700
H        1.98677500       0.74784000      -0.94069800
H        1.95687800       2.35470900      -0.17076500
H       -0.20211900      -1.28586700       0.38173200
H       -1.75592000      -2.16006800       0.52892700
H       -0.88677800      -2.19860700      -0.99553800
H       -2.82124100      -0.55367200      -1.12087300
H        0.18025100       0.99263900       0.54301100
