16
Extracted from Q-Chem output
C       1.733225     -0.253400      0.313244
C       0.258460      0.075011      0.141064
C       0.049193      1.588874      0.029806
C      -0.636526     -0.461590      1.249610
C      -1.616961     -0.876687      0.189277
C      -0.556020     -0.719738     -0.915639
H       2.133122      0.248408      1.196158
H       2.301312      0.069639     -0.563413
H       1.888650     -1.326247      0.440435
H       0.409334      2.094287      0.927344
H       0.610251      1.962750     -0.829843
H      -0.999852      1.854026     -0.112829
H      -2.166518     -1.806460      0.345525
H      -2.367295     -0.075060      0.148160
H      -0.839994     -0.206328     -1.836472
H      -0.081160     -1.665915     -1.175347
