16
Extracted from Q-Chem output
C       1.839263     -0.275618      0.348390
C       0.383903     -0.011056      0.073645
C      -0.063755      1.453740      0.088584
C      -0.715206     -0.027147      1.108442
C      -1.645521     -0.577772     -0.003600
C      -0.445753     -0.790944     -0.951869
H       2.160352      0.247240      1.251302
H       2.470637      0.045697     -0.484487
H       2.007132     -1.342773      0.505748
H       0.719700      2.105912      0.461654
H      -0.542974      1.795994     -0.824607
H      -0.848652      1.521712      0.938777
H      -2.109749     -1.496415      0.359141
H      -2.445560      0.079356     -0.345628
H      -0.495840     -0.387888     -1.965945
H      -0.148758     -1.838466     -1.012462
