11
smiles: [C:1]([C:2]#[N+:3][O-:4])([H:7])([H:8])[H:9].[C:5](#[C:6][H:11])[H:10]
C       -2.05568900      -0.46621000       0.30345000
C       -0.72372600      -1.03829000       0.46102000
N        0.32691000      -1.49010000       0.58504200
O        1.42612700      -1.96278700       0.71435000
C        2.16506100       0.96784800      -0.50472300
C        1.96324800       2.06186100      -0.94009900
H       -2.66884500      -1.10285000      -0.33491300
H       -2.54554000      -0.37326400       1.27307200
H       -1.99289900       0.52279600      -0.15116900
H        2.34596900      -0.00744700      -0.11710800
H        1.78442000       3.03717900      -1.32822800
