11
Extracted from Q-Chem output
C      -1.816587     -0.096019      0.109380
C      -0.398541     -0.471006      0.159474
N       0.386232     -1.336507      0.389043
O       1.577638     -1.577322      0.411234
C       2.162343      0.508459     -0.247744
C       1.074969      1.047270     -0.365454
H      -2.436609     -0.952839      0.372739
H      -2.022074      0.712899      0.811047
H      -2.087458      0.235714     -0.893358
H       3.176202      0.189250     -0.193810
H       0.402574      1.848542     -0.581589
