17
Extracted from Q-Chem output
C       2.314846     -0.119473      0.692377
O       1.045747      0.374411      0.331730
C       0.524798     -0.182672     -0.860350
C      -0.900971      0.292452     -1.050341
C      -1.958008     -0.285934     -0.092010
C      -2.177287      0.228237      1.317491
O      -1.143162      0.803697      1.846160
H       2.283947     -1.202624      0.855453
H       2.608453      0.374581      1.616596
H       3.054000      0.103341     -0.084864
H       1.150406      0.131810     -1.705114
H       0.563096     -1.279761     -0.802812
H      -1.191627      0.025396     -2.069392
H      -2.938977     -0.228048     -0.569029
H      -1.802608     -1.365151      0.060164
H      -0.911953      1.386792     -1.011679
H      -0.319992      0.789249      1.299729
