13
Extracted from Q-Chem output
C       1.818701     -0.258015      0.717963
C       0.664461      0.503548      0.124195
O       0.512483      1.697464      0.303333
C      -0.228748     -0.305838     -0.727972
C      -1.547140     -0.624486     -0.157926
N      -1.638392      0.568140     -0.996492
H       1.507789     -1.256029      1.032187
H       2.240769      0.295527      1.554133
H       2.583391     -0.388154     -0.050880
H      -0.753404      0.274240     -1.764056
H      -1.693994     -0.402386      0.895453
H      -2.113302     -1.479778     -0.511657
H      -1.454074      1.422035     -0.466475
