14
Extracted from Q-Chem output
C      -1.179426     -0.961010     -0.146826
C      -0.182413     -0.057672      0.549555
C       1.294881     -0.409180      0.343739
O       1.488541      0.732965     -0.507789
C       0.191553      1.245322     -0.195897
O      -0.524577      1.638716     -1.304960
H      -2.169321     -0.503310     -0.183365
H      -1.264624     -1.913590      0.379056
H      -0.872183     -1.187825     -1.171859
H      -0.473374      0.107654      1.587152
H       1.915427     -0.352019      1.241902
H       1.502793     -1.345568     -0.181638
H      -0.533148      0.915758     -1.938596
H       0.252414      2.132661      0.440466
