15
Extracted from Q-Chem output
C      -1.936056      0.008821     -0.602334
N      -1.471648     -0.643969      0.601014
C      -0.099317     -0.944380      0.849719
C       0.881609      0.068530      0.296866
C       2.029812     -0.044074     -0.631740
C       0.219503      1.021595      0.942273
N      -0.744124      0.125031      1.629558
H      -1.244609      0.749407     -1.016034
H      -2.886397      0.493113     -0.377861
H      -2.116628     -0.766897     -1.347727
H       0.143000     -1.908594      1.283093
H       2.504728      0.924458     -0.788219
H       1.702863     -0.430230     -1.601324
H       2.781463     -0.737081     -0.246946
H       0.226961      2.100045      1.015772
