15
smiles: [C:1](=[C:2]([H:10])[H:11])([H:8])[H:9].[C:3]([O:4][H:7])[N:5]([C:6]([H:13])([H:14])[H:15])[H:12]
C        2.88456300      -0.16220800       0.07314300
C        2.61872200       1.08546500       0.41967000
C       -0.61030500       0.16644000      -0.62040400
O       -0.35136500      -0.27278100       0.62564100
N       -1.90063200      -0.00040100      -0.85490100
C       -2.89418900      -0.55878500       0.05337200
H        0.58593500      -0.14144400       0.77139300
H        2.44862800      -0.61165400      -0.81180300
H        3.54813500      -0.78664400       0.66045100
H        3.05443800       1.53472800       1.30482100
H        1.95489500       1.70984900      -0.16739900
H       -2.20917700       0.29368900      -1.76318700
H       -2.65217800      -1.59192400       0.30505200
H       -2.93761300       0.01685900       0.97804500
H       -3.86892500      -0.53055200      -0.42987000
