9
Extracted from Q-Chem output
N       1.712566      0.174026      0.312222
C       0.380842     -0.084265      0.199782
N      -0.150509     -1.258137      0.403821
O      -1.514898     -1.017074      0.237750
C      -1.632414      0.262707     -0.053073
N      -0.521316      0.910434     -0.098253
H       2.031828      0.991690     -0.175383
H       2.322665     -0.623417      0.280506
H      -2.628763      0.644036     -0.223479
