9
Extracted from Q-Chem output
N       1.898037     -0.172818      0.116572
C       0.604433     -0.443788      0.226806
N      -0.267221     -1.230660      0.491512
O      -1.510280     -1.221289      0.509991
C      -1.751710      0.750488     -0.103594
N      -0.687327      1.195398     -0.262254
H       2.274645      0.478333      0.787029
H       2.248575     -0.044988     -0.819630
H      -2.818120      0.684639     -0.062894
