12
Extracted from Q-Chem output
C      -1.056367      1.068979      0.184488
C      -0.072111     -0.009933     -0.089830
O      -0.220448     -1.346954      0.912813
C       0.386311     -0.952364     -1.158022
C       0.928713     -1.039036      0.262134
C       1.501081      0.224354      0.533284
H      -2.054541      0.728163     -0.086230
H      -0.790352      1.931240     -0.424662
H      -1.034218      1.348489      1.234364
H       1.044848     -0.532140     -1.906743
H      -0.304928     -1.730031     -1.455381
H       1.351203      0.456008      1.595176
