10
Extracted from Q-Chem output
O       2.155592     -0.553727     -0.225157
C       1.318715      0.245270      0.014642
N      -0.111513     -0.055562     -0.006395
C      -0.860430      1.008264      0.306635
C      -0.459454     -1.290159     -0.320521
H       1.499856      1.295437      0.277617
H      -0.367661      1.935778      0.536464
H      -1.932413      0.907725      0.325934
H       0.323933     -1.992770     -0.539542
H      -1.506695     -1.541080     -0.344839
