15
Extracted from Q-Chem output
C      -1.420545      0.316202     -0.757727
C      -1.435920     -0.056136      0.700708
C      -0.147957      0.002323     -0.048792
C       0.820417     -1.154081     -0.246337
C       2.115107     -0.345283      0.066408
O       1.924212      0.809485     -0.739107
C       0.946328      0.988745      0.240874
H      -1.784196     -0.411847     -1.471301
H      -1.619947      1.346785     -1.023953
H      -1.644019      0.726839      1.420041
H      -1.816013     -1.030846      0.978902
H       0.672860     -1.982091      0.445826
H       0.889740     -1.535223     -1.267185
H       1.553289      0.425680      1.165445
H       0.852882      2.011089      0.599038
