10
Extracted from Q-Chem output
O      -0.154771      1.569844     -1.112554
C      -0.038448      0.571918     -0.389442
C      -1.080074     -0.280878      0.309252
C       0.174600     -1.028003      0.756523
O       1.011148      2.109400     -1.601087
C       1.050357     -0.233569      0.113784
H      -1.754146     -0.828585     -0.350246
H      -1.646749      0.221212      1.093946
H       0.293631     -1.903989      1.379807
H       2.120664     -0.186481     -0.002918
