14
smiles: [C:1]([C:2](=[C:5]=[O:6])[H:10])([H:7])([H:8])[H:9].[C:3](=[C:4]([H:13])[H:14])([H:11])[H:12]
C        2.65100200      -0.05128300       0.68671200
C        1.18093500      -0.08343700       0.35894600
C       -2.20597500      -0.24715600      -1.31287200
C       -2.32830500       0.85444000      -0.59260300
C        0.29571600      -0.71068200       1.08901600
O       -0.48801100      -1.26762100       1.73670100
H        2.99260700       0.97159500       0.85694700
H        2.86798500      -0.62820000       1.58550100
H        3.24154000      -0.47285000      -0.12889100
H        0.79164700       0.42140200      -0.51586300
H       -2.10521700      -0.21308200      -2.39176300
H       -2.20132700      -1.22896300      -0.85339900
H       -2.33305700       1.83631100      -1.05193500
H       -2.42912400       0.82017700       0.48628100
