13
Extracted from Q-Chem output
N      -1.890909      0.345187     -0.371227
C      -0.693343      0.101047      0.406916
C      -0.042849     -1.251914      0.037606
O      -0.570457     -2.325304     -0.074659
N       1.297635     -0.987911     -0.137197
C       1.563023      0.381264     -0.022851
C       0.465240      1.063824      0.285317
H      -1.663569      0.507336     -1.343452
H      -2.381244      1.158717     -0.027802
H      -0.995450      0.004195      1.456321
H       1.948154     -1.688163     -0.443051
H       2.570030      0.742107     -0.173574
H       0.403645      2.128997      0.445964
