13
Extracted from Q-Chem output
C       0.586033     -0.903959      0.466815
C      -0.859362     -0.971573     -0.035627
O      -1.549492      0.250284      0.236466
C      -0.913290      1.355722     -0.194184
N       0.339151      1.363131     -0.493668
C       1.234499      0.317274     -0.108652
H       0.561392     -0.879043      1.560513
H       1.119907     -1.813727      0.180912
H      -0.878739     -1.154139     -1.114070
H      -1.439302     -1.747316      0.461629
H      -1.529224      2.240138     -0.259054
H       1.188616      1.787012      0.098552
H       2.068564      0.240273     -0.794224
