14
Extracted from Q-Chem output
C       1.340165      0.387901      0.544955
C      -0.088559      0.201870      0.101402
C      -0.379843     -1.072928     -0.713625
C      -0.941954     -0.861368      0.664317
C      -0.995559      1.347525     -0.904397
O      -0.580439      1.823466      0.230350
H       1.815658     -0.590129      0.647285
H       1.898511      0.960990     -0.195909
H       1.394390      0.906437      1.501388
H      -1.049833     -1.027002     -1.554548
H       0.478961     -1.727937     -0.824111
H      -0.525604     -1.425779      1.489754
H      -1.999902     -0.655452      0.729411
H      -0.362446      1.758436     -1.742912
