11
Extracted from Q-Chem output
C      -1.727845      0.247788     -0.577309
C      -0.729933     -0.825864     -0.269922
O      -0.929264     -2.012801     -0.322768
C       0.658517     -0.378986      0.058160
O       0.983303     -0.234546      1.273157
C       2.218356      0.396014      0.543194
O       2.364905      1.567271      0.539939
H      -1.899256      0.852988      0.316380
H      -2.661022     -0.203348     -0.908064
H      -1.334606      0.912124     -1.349726
H       2.920345     -0.421414      0.409333
