17
Extracted from Q-Chem output
C      -2.298023     -0.448502      0.071165
C      -0.846370     -0.575214     -0.258745
O      -0.493287      0.477328     -1.248497
C       0.043802     -0.114938      0.895898
C       1.214732      0.329771      0.119790
C       2.013315     -0.600053     -0.684390
O       1.680024      1.529331      0.242176
H      -2.575263      0.575481      0.422126
H      -2.915729     -0.669915     -0.802007
H      -2.579094     -1.147275      0.863334
H      -0.899735      1.323851     -0.982442
H      -0.345984      0.785503      1.447658
H       0.279888     -0.891432      1.627702
H       2.650873     -1.166543      0.002213
H       1.302235     -1.297201     -1.137344
H       2.628717     -0.075204     -1.410936
H       1.097317      2.036722      0.830370
