14
smiles: [C:1]([C+:2]([N:3]([C:4](=[C:5]=[N-:6])[H:13])[H:12])[H:10])([H:7])([H:8])[H:9].[H:11][H:14]
C        2.07983300      -0.13702700       0.47195500
C        0.60150600      -0.19120300       0.61502300
N       -0.16750200      -0.58949100      -0.35814700
C       -1.52006800      -0.71369400      -0.44320400
C       -2.29446800      -0.37681100       0.66604400
N       -2.88117600      -0.08170800       1.61913600
H        2.40024300      -0.46158600      -0.52081100
H        2.57348200      -0.77804300       1.20717100
H        2.45506200       0.87787500       0.62788500
H        0.10995000       0.10198100       1.53370400
H       -0.59363500       2.41536900      -0.26033700
H        0.31505300      -0.85764800      -1.20701800
H       -1.93412700      -1.07330000      -1.36694600
H       -1.20256300       2.08886500      -0.53779600
