12
Extracted from Q-Chem output
C      -1.630578     -0.300717     -0.738633
C      -0.333017      0.095533     -0.139082
C       0.144665      1.315002      0.172841
O       1.428598      1.194027      0.725078
C       1.649788     -0.103873      0.712137
O       2.619519     -0.829863      1.077147
N       0.660086     -0.812899      0.218140
H      -1.472790     -0.832718     -1.678404
H      -2.176211     -0.966413     -0.067601
H      -2.247895      0.574703     -0.935234
H      -0.248514      2.311844      0.089466
H       1.621375     -1.634816      0.572153
