12
smiles: [C:1](#[C:2][C:3]1=[C:4]([H:10])[O:5][C:6]1([H:11])[H:12])[H:7].[H:8][H:9]
C        2.92219200       1.18383200       0.40619300
C        1.75903000       0.88891800       0.37809900
C        0.39679700       0.54788300       0.31135500
C       -0.60697400       0.27956700       1.15478700
O       -1.59956400       0.05477700       0.24237000
C       -0.60576800       0.32449600      -0.79609700
H        3.95318900       1.44529100       0.43871500
H       -2.09872000      -3.11237500      -0.78641000
H       -2.11537200      -2.45225600      -0.44234900
H       -0.78813000       0.20923500       2.21851600
H       -0.89391100       1.19486300      -1.38467800
H       -0.46067300      -0.55461000      -1.42309800
