12
Extracted from Q-Chem output
C       2.557562     -0.086725     -0.120672
C       1.365731     -0.033987      0.070650
C       0.004634      0.180765      0.221808
C      -1.131565     -0.683735      0.245616
O      -1.848621      0.154442     -0.699662
C      -0.849573      1.188931     -0.503308
H       3.609049     -0.190027     -0.250229
H       0.316627     -1.558320      1.250234
H      -0.660179     -1.753388      0.159321
H      -1.751556     -0.785147      1.134659
H      -1.274077      2.008524      0.082236
H      -0.403753      1.568740     -1.425942
