14
Extracted from Q-Chem output
N       0.937611      0.373868      2.030667
C       1.282851      0.758788      0.779824
O       1.933229      1.753261      0.541025
C       0.806270     -0.167193     -0.328216
C      -0.420473     -0.984430      0.011098
C      -1.774605     -0.267964     -0.930929
O      -1.040056     -1.430179     -1.174192
H       1.242678      0.930141      2.808552
H       0.363005     -0.440339      2.168566
H       1.575767     -0.938879     -0.458529
H       0.771324      0.392541     -1.266399
H      -1.477584     -0.082996      0.241531
H      -1.488703      0.594698     -1.525832
H      -2.840936     -0.458281     -0.824907
