13
smiles: [H:10][H:12].[O:1]([C:2](=[C:3]=[C:4]=[C:5]([C:6](=[O:7])[H:13])[H:11])[H:9])[H:8]
O        2.90208100       0.01967200      -0.20311400
C        2.16355200       0.73171600       0.65965000
C        0.85069300       0.69486500       0.76649500
C       -0.40188600       0.68328300       0.89346800
C       -1.71689400       0.64333200       0.99525700
C       -2.50564400      -0.23410900       0.12357800
O       -3.70664900      -0.31649600       0.16019000
H        2.32763100      -0.53145200      -0.74463800
H        2.77352500       1.36910000       1.28909200
H        1.02912500      -1.96180600      -1.90294300
H       -2.24634300       1.25206200       1.71913500
H        0.57901000      -1.54716600      -1.47886800
H       -1.90911900      -0.83612000      -0.59166400
