15
Extracted from Q-Chem output
C       2.360357      0.225503      0.448094
N       1.091191     -0.142417     -0.389262
C       0.498538     -1.359090      0.106396
C      -0.800788     -1.179535      0.312894
C      -1.142560      0.194968     -0.068491
N      -2.397979      0.725183      0.129634
C      -0.020656      0.786887     -0.506093
H       1.484485     -0.333288     -1.309901
H       2.673163      1.172562     -0.016802
H       1.928857      0.493149      1.423820
H       1.162306     -2.186123      0.295355
H      -1.488147     -1.904756      0.722838
H      -3.162315      0.075391      0.067657
H      -2.588087      1.601024     -0.325601
H       0.186238      1.795560     -0.820153
