15
Extracted from Q-Chem output
C       2.536724      0.259362      0.177063
N       0.984726     -0.115610     -0.303871
C       0.442289     -1.308502      0.179705
C      -0.879149     -1.148736      0.356900
C      -1.217080      0.203855     -0.043123
N      -2.491753      0.736728      0.063537
C      -0.074428      0.808150     -0.443160
H       1.793273     -0.288231     -1.006746
H       2.530966      1.339459      0.017433
H       2.524749      0.053752      1.248345
H       1.094435     -2.149144      0.355369
H      -1.570883     -1.891041      0.725501
H      -3.236280      0.071603     -0.060490
H      -2.649703      1.578541     -0.463975
H       0.120552      1.809979     -0.785633
