14
Extracted from Q-Chem output
C       2.060244      0.947326      0.077561
N       1.628871     -0.424001      0.220582
C       0.414003     -0.707316      0.034948
O      -0.017793     -1.976053      0.162733
N      -0.601697      0.156341     -0.302974
C      -1.928967     -0.166492     -0.497435
N      -2.754535      0.738056     -0.810279
H       1.557818      1.620185      0.784480
H       1.896846      1.333952     -0.936738
H       3.128728      1.007060      0.277621
H       0.765484     -2.486381      0.397988
H      -0.368723      1.128289     -0.426923
H      -2.149901     -1.222932     -0.353923
H      -3.684871      0.351009     -0.917444
