14
smiles: [C:1](=[C:2]([C:3]([H:10])([H:11])[H:12])[C:5](=[O:6])[H:14])([H:8])[H:9].[O:4]([H:7])[H:13]
C       -1.15238400       1.20976000       0.45235300
C       -0.34669600       0.16065500       0.56974600
C        0.96806100       0.16855200       1.29052900
O        1.11193900      -0.38024200      -2.23408200
C       -0.75675800      -1.13383800      -0.05142100
O       -1.77353500      -1.31440200      -0.66655300
H        0.59740900       0.41846100      -2.11127300
H       -2.08795300       1.11957500      -0.08650000
H       -0.90248300       2.17181600       0.88388700
H        1.78611800      -0.09588200       0.61517400
H        0.97449700      -0.56211600       2.10372700
H        1.18122600       1.14922700       1.71389200
H        0.50728300      -1.01585700      -2.61885400
H       -0.03562700      -1.96652800       0.09169900
