14
Extracted from Q-Chem output
C      -0.843468      1.176112     -0.110290
C       0.092953     -0.025890     -0.240844
C       1.211592      0.026723      0.800502
O       0.645841     -0.059525     -1.531349
C      -0.715218     -1.287609     -0.011429
O      -0.828765     -2.144809     -0.845445
H      -0.270700      2.090373     -0.268236
H      -1.628800      1.128374     -0.865755
H      -1.303989      1.222974      0.879032
H       1.872730     -0.834105      0.692169
H       0.814230      0.044940      1.817724
H       1.799612      0.931304      0.642962
H       0.358559     -0.888720     -1.936861
H      -1.204578     -1.380142      0.977820
