14
Extracted from Q-Chem output
C      -0.920560      1.120875     -0.048048
C      -0.019625     -0.001543      0.044374
C       1.134406      0.046479      1.008517
O       0.714118      0.191682     -1.499654
C      -0.690468     -1.335289     -0.078806
O      -0.878650     -1.921433     -1.112478
H      -0.053623      1.026605     -1.330325
H      -1.962827      0.906118     -0.262771
H      -0.749225      1.944001      0.636478
H       1.903110     -0.685609      0.764240
H       0.763890     -0.147945      2.017457
H       1.577865      1.041312      0.995984
H       0.300074     -0.495307     -2.051342
H      -1.065065     -1.732066      0.884053
