10
Extracted from Q-Chem output
O      -1.067040      1.378856     -0.263630
C      -1.323768      0.105824     -0.242905
N      -0.454104     -0.746791      0.193516
C       0.840221     -0.353487      0.623187
C       1.658496      0.236784     -0.351978
N       2.288692      0.791474     -1.151436
H      -2.294141     -0.208775     -0.601156
H      -0.742495     -1.715048      0.237607
H      -0.198476      1.505086      0.184268
H       1.282263     -0.999573      1.363739
