8
Extracted from Q-Chem output
N       1.044773     -0.419173     -0.144118
C      -0.183739      0.167258     -0.297317
O      -0.074196      1.508255     -0.233086
N      -1.322864     -0.368621     -0.444210
H       1.141512     -1.370598     -0.445639
H       1.845321      0.171294     -0.283143
H      -1.276719     -1.379573     -0.465997
H      -0.973664      1.846144     -0.303122
