8
Extracted from Q-Chem output
N       1.123902     -0.431008     -0.225303
C      -0.017331      0.275886     -0.300714
O      -0.035351      1.561881     -0.258669
N      -1.261900     -0.124619     -0.403255
H       1.129506     -1.413264     -0.418434
H       1.990097      0.072005     -0.263824
H      -1.577228     -1.080245     -0.396166
H      -1.270545      1.195725     -0.342821
