16
smiles: [C:1]1([H:7])([H:8])[C:2]([H:9])([H:10])[O:4][C:5]([H:13])([H:14])[C:6]1([H:15])[H:16].[C:3]([H:11])[H:12]
C       -0.52822200      -1.43363000       0.25075800
C       -1.19257300      -0.15031900      -0.23371700
C       -0.61962000       2.29609100      -0.08169200
O       -0.20960700       0.87122100      -0.13133200
C        1.07032200       0.30061700       0.10632200
C        0.92584700      -1.19478900      -0.14886100
H       -0.96222700      -2.32756700      -0.19694100
H       -0.61380500      -1.52085600       1.33669800
H       -1.51307300      -0.24245600      -1.27889900
H       -2.06028500       0.13596300       0.36485400
H       -0.17591900       2.43063400       0.92675100
H        0.10312900       2.83716700      -0.72739400
H        1.36737200       0.49687600       1.14408600
H        1.79652000       0.78111300      -0.55305700
H        1.63752400      -1.79025300       0.42287400
H        1.06974100      -1.41591200      -1.20923600
