16
Extracted from Q-Chem output
C       2.768747      1.090706      1.382770
C       1.749767      0.285548      1.312003
C       0.738406     -0.528167      1.230081
C       0.122072     -0.988801     -0.064517
C      -1.314991     -0.547982     -0.197704
C      -1.666056      0.754242     -0.793904
N      -1.846460     -0.483651     -1.552612
H       2.632268      2.165104      1.427952
H       3.782921      0.708336      1.401061
H       0.301083     -0.895220      2.155869
H       0.166390     -2.081300     -0.122300
H       0.688419     -0.599833     -0.911875
H      -1.982555     -0.913356      0.579427
H      -0.875637      1.401446     -1.157340
H      -2.544218      1.270509     -0.422729
H      -2.821672     -0.752492     -1.576289
