9
Extracted from Q-Chem output
N       2.565696     -0.396656     -0.388863
C       1.513064      0.047145     -0.276498
C       0.188660      0.597713     -0.107906
C      -0.975541     -0.309165     -0.271421
N      -0.610778      0.185508      1.042839
H       0.102538      1.643292     -0.376714
H      -1.891664      0.097296     -0.681005
H      -0.767552     -1.343066     -0.520918
H      -0.124424     -0.522068      1.580487
