9
Extracted from Q-Chem output
N       2.534274     -0.474498     -0.146520
C       1.485386     -0.012784     -0.199426
C       0.155535      0.562621     -0.287953
C      -0.969346     -0.297787     -0.735853
N      -0.669403      0.313120      0.894033
H       0.176061      1.605449     -0.591500
H      -1.678124      0.162752      0.362573
H      -0.670966     -1.349000     -0.670610
H      -0.336642     -0.475326      1.437320
