15
Extracted from Q-Chem output
C      -1.313923      0.341764     -0.844478
C      -1.624591     -0.109341      0.553322
C      -0.203376      0.093603      0.161776
C       0.800375     -1.038447     -0.034556
C       2.032880     -0.248234     -0.326838
O       1.874512      0.952757      0.194438
C       0.657201      1.201230      0.611141
H      -1.423156     -0.374788     -1.649406
H      -1.538322      1.366969     -1.110378
H      -2.067273      0.607888      1.232926
H      -1.960776     -1.128827      0.698289
H       0.916411     -1.599641      0.912018
H       0.513271     -1.746758     -0.811779
H       3.053673     -0.578346     -0.429549
H       0.418381      2.232696      0.815202
