16
Extracted from Q-Chem output
C      -1.367732      0.635529      0.456448
C      -0.503881      1.328932     -0.522783
C       0.956670      1.043340     -0.234800
C       1.207978     -0.306918      0.465210
C       0.179582     -1.311600     -0.079126
C      -1.040235     -0.513287     -0.506545
H      -0.997646      0.449989      1.464159
H      -2.412191      0.934492      0.461629
H      -0.763218      0.082300     -1.463704
H       1.538186      1.126254     -1.155576
H       1.275449      1.882168      0.396077
H       1.085757     -0.201735      1.544140
H       2.230066     -0.653068      0.306138
H      -0.086362     -2.050535      0.679990
H       0.579765     -1.858604     -0.935695
H      -1.916394     -1.055183     -0.855188
