15
Extracted from Q-Chem output
C      -2.122205      0.671333      0.374941
N      -0.694865      0.259387      0.720008
C       0.082522     -0.083479     -0.491802
C       1.578533     -0.152058     -0.199384
O       1.911616      1.076127      0.405654
C      -0.379628     -1.357139     -1.045569
N      -0.671071     -2.381961     -1.467091
H      -2.637893     -0.273940      0.165027
H      -2.520645      1.049144      1.324157
H      -0.232801      1.076565      1.114131
H      -0.577874     -0.500367      1.400700
H      -0.151397      0.715290     -1.199295
H       2.108105     -0.306247     -1.144486
H       1.798559     -1.000258      0.460754
H       2.848298      1.099121      0.605008
