15
Extracted from Q-Chem output
C      -1.989767      0.830531      0.636140
N      -0.513799      0.189512      0.800295
C       0.133690     -0.134670     -0.452729
C       1.659551     -0.215184     -0.315047
O       2.207777      1.030725      0.014366
C      -0.400756     -1.392459     -0.997761
N      -0.773260     -2.400918     -1.396374
H      -2.435696      0.353075     -0.238266
H      -2.512504      0.508041      1.536815
H      -0.641986      1.266674      0.979266
H      -0.401441     -0.501871      1.531802
H      -0.117197      0.676381     -1.144588
H       2.083408     -0.510320     -1.275045
H       1.921329     -0.990202      0.416466
H       2.014384      1.236789      0.930821
