16
Extracted from Q-Chem output
C       2.550163     -0.500619     -0.658361
C       1.430599     -0.378226      0.282228
C       0.179459     -0.099572     -0.406680
N      -0.937316      0.386843      0.361795
C      -2.256382      0.212215     -0.199767
C      -0.760952      1.123254      1.491443
O      -1.655120      1.624901      2.134212
H       3.307137     -1.213579     -0.331804
H       3.022990      0.489559     -0.534625
H       2.318065     -0.620545     -1.726695
H       0.300669      1.207126      1.769621
H       0.265068      0.433833     -1.370391
H      -0.012558     -1.161761     -0.688614
H      -2.974752      0.687526      0.463545
H      -2.323719      0.673599     -1.190007
H      -2.499716     -0.849989     -0.292705
