10
Extracted from Q-Chem output
C      -1.235724      0.694959      0.401768
O      -0.308476      0.497720     -0.653761
C       0.957961     -1.140626     -0.723826
C       1.157828      0.169710     -0.244874
N       2.017697      0.807346      0.284257
H      -1.278421      1.758158      0.645021
H      -0.938349      0.145331      1.301344
H      -2.220636      0.364101      0.071840
H       1.239640     -1.427108     -1.732406
H       0.621871     -1.918927     -0.045717
