13
Extracted from Q-Chem output
C      -2.131702      0.490207     -0.141090
C      -0.743199     -0.016531     -0.151306
C      -0.181221     -1.236988     -0.138213
N       1.192076     -1.076153     -0.250975
C       1.405551      0.229046     -0.232521
N       2.693060      0.453093     -0.115338
O       0.285289      0.941456     -0.223837
H      -2.363808      1.037776     -1.057378
H      -2.819672     -0.350999     -0.061905
H      -2.307020      1.157708      0.705065
H      -0.671450     -2.195120     -0.099688
H       2.486827     -0.960118     -0.170197
H       3.122581      1.305837     -0.432156
