14
Extracted from Q-Chem output
C       1.119093      0.510457      0.017107
C       0.967702     -1.005067      0.177618
C      -0.330155     -1.208972     -0.636027
O      -1.455803     -1.045016      0.207819
C      -1.405401      0.345810      0.455592
C      -0.282813      0.751701     -0.505119
H       1.376407      1.088982      0.909718
H       1.853258      0.747345     -0.754149
H       0.788304     -1.312347      1.209279
H       1.799924     -1.588760     -0.213188
H      -0.409243     -0.244024     -1.431266
H      -1.184912      0.597383      1.503745
H      -2.368838      0.789868      0.193646
H      -0.465854      1.613473     -1.147914
