10
Extracted from Q-Chem output
N       2.044038     -0.042903      0.244157
C       0.765567      0.181157      0.487103
O       0.041883     -0.529681     -0.374175
C      -1.366142     -0.326948     -0.201265
O      -1.739762      0.966674     -0.491916
H       2.359162     -0.657976     -0.496650
H       2.732832      0.415874      0.809443
H      -1.850058     -0.987702     -0.917316
H      -1.614532     -0.609837      0.826116
H      -1.313010      1.532997      0.161200
