10
Extracted from Q-Chem output
N       1.789278      0.002720      0.111713
C       0.690904     -0.346029     -0.574240
O       0.086549     -1.387758     -0.125787
C      -1.235551     -0.049971     -0.304586
O      -1.228133      1.221770      0.150283
H       2.115584     -0.577099      0.877086
H       2.374834      0.745569     -0.220519
H      -1.443614     -0.123190     -1.358197
H      -1.806113     -0.711120      0.340832
H      -1.343739      1.225108      1.103413
