16
Extracted from Q-Chem output
C       1.650090      0.400313     -0.994212
C       0.754472      0.835597      0.159223
C       0.107886     -0.345420      0.853422
O      -0.817403      0.151531      1.842709
C      -1.000998     -1.167733      0.270725
C      -1.746759     -0.538062     -0.829884
H       2.420995     -0.296822     -0.657418
H       2.152213      1.258105     -1.442711
H       1.079935     -0.095568     -1.782755
H       1.341809      1.376448      0.906568
H      -0.010990      1.532315     -0.187808
H       0.883521     -0.961295      1.320403
H      -1.086707     -0.595783      2.388554
H      -1.627858      0.535871     -1.005143
H      -2.800779     -0.816192     -0.832426
H      -1.307946     -1.069791     -1.692985
