13
Extracted from Q-Chem output
N      -1.325637      0.187527      0.027950
C      -1.644296     -0.355577      1.226563
O      -0.959998     -1.163776      1.809153
C      -0.122414     -0.186654     -0.679435
C       1.129666      0.433844     -0.044075
C       2.329535      0.106887     -0.807033
N       3.254261     -0.157008     -1.432055
H      -1.950755      0.860986     -0.375874
H      -2.603188      0.017578      1.625889
H      -0.217697      0.133162     -1.716721
H      -0.026745     -1.273424     -0.669594
H       1.033558      1.520478      0.004721
H       1.241490      0.059068      0.974593
