13
Extracted from Q-Chem output
N      -1.780586      0.442453     -0.151650
C      -1.738831     -0.009319      1.049729
O      -0.752308     -0.718126      1.372410
C       0.093766     -0.582737     -0.488454
C       1.271581      0.159560      0.080662
C       2.318116      0.268991     -0.938070
N       3.122103      0.335222     -1.753253
H      -2.566181      1.010036     -0.445595
H      -2.510930      0.198904      1.797138
H      -0.179000     -0.263549     -1.481003
H       0.096296     -1.657666     -0.378200
H       0.966051      1.167231      0.367732
H       1.666918     -0.333444      0.965868
