9
Extracted from Q-Chem output
O       0.129401      1.499673     -0.294240
C       0.281544      0.333535      0.310528
C      -0.934630     -0.577276      0.203215
O      -1.891587     -0.202410     -0.411181
C       1.170399     -0.902937     -0.776621
N       2.038094     -0.424141     -0.136445
H      -0.609066      1.412799     -0.921104
H       0.711067      0.409815      1.303539
H      -0.874788     -1.541699      0.726981
