9
smiles: [C:1](#[C:6][H:9])[H:7].[C:2](#[N:3])[H:8].[N:4]#[N:5]
C       -0.54612600       2.37955900      -0.09729400
C        1.84979200      -0.53647200       0.05139300
N        2.54072200      -1.44720200       0.08512200
N       -1.05914200      -3.38680800       0.28622800
N       -1.20549000      -2.31291000       0.18841800
C       -1.16035800       1.35496300      -0.08714100
H        0.00050500       3.29337700      -0.10603200
H        1.20565900       0.31522800       0.01987400
H       -1.70703000       0.44121900      -0.07829200
