10
Extracted from Q-Chem output
O       0.881472     -0.848041     -1.562853
C       0.532536      0.137798      1.502306
C      -0.442776      0.228876      0.467756
O      -0.795391      0.699438      1.695649
C      -1.007649      0.102823     -0.708865
O      -0.443085     -0.434766     -1.839449
H       1.387475     -0.200489     -2.067844
H       0.699440     -0.810909      2.001704
H       1.340123      0.860821      1.554723
H      -2.024759      0.412097     -0.906242
