13
Extracted from Q-Chem output
C      -1.146140     -1.218840      0.096000
O       0.085890     -1.449822     -0.401726
C       1.088632     -0.665370      0.233873
C       0.598000      0.761066      0.127163
N       0.029235      1.210895     -1.135598
C      -0.853301      0.875382     -0.046720
H      -1.113878     -1.078301      1.191002
H      -1.597907     -0.120491     -0.374183
H       1.190307     -0.947498      1.289086
H       2.032583     -0.840359     -0.284257
H       1.137590      1.515020      0.689938
H       0.044565      0.462824     -1.824941
H      -1.480126      1.636373      0.403245
