15
Extracted from Q-Chem output
O      -2.181848      0.618754      0.858691
C      -1.157563     -0.240369      0.451438
C      -0.729666     -0.282156     -1.025022
C       0.718574     -0.483048     -0.550241
C       1.810892      0.281881     -1.230586
O       1.631639      1.139333     -2.052617
C       0.300072      0.073293      0.843762
H      -2.014378      1.491361      0.495498
H      -1.443188     -1.232756      0.804566
H      -0.826360      0.698228     -1.498105
H      -1.172313     -1.037097     -1.672549
H       2.841104      0.035363     -0.897322
H       1.004614     -1.534593     -0.473465
H       0.461022      1.153456      0.892516
H       0.712135     -0.393361      1.736921
