15
Extracted from Q-Chem output
O      -2.337155      0.418552      0.972285
C      -1.229317     -0.265992      0.484186
C      -0.775895     -0.062635     -0.987107
C       0.608973     -0.081023     -0.485843
C       1.843607     -0.253228     -1.230152
O       1.711744      0.263527     -2.425991
C       0.201706      0.177440      0.919122
H      -2.291222      1.340693      0.709900
H      -1.395572     -1.318892      0.707278
H      -1.036019      0.940840     -1.344797
H      -1.014220     -0.766042     -1.787416
H       2.635733      0.212222     -0.584526
H       2.104798     -1.352919     -1.122729
H       0.210609      1.253685      1.129381
H       0.746101     -0.334349      1.714374
