13
Extracted from Q-Chem output
N       1.465324     -0.769964      2.446313
C       0.900238     -1.074569      1.496631
C       1.026256      0.663161     -0.904004
C       0.034089     -0.410803     -0.753185
C       0.146144     -1.486931      0.316978
C      -1.069422      1.767500      0.057574
N      -0.146522      0.977644     -0.378506
H       1.539264      1.138009     -1.723615
H      -0.626997     -0.715540     -1.570241
H      -0.845640     -1.813410      0.641184
H       0.639980     -2.356768     -0.123036
H      -1.969141      1.335404      0.466367
H      -0.891618      2.832608      0.057911
