13
Extracted from Q-Chem output
N       1.892945     -0.205047      1.850362
C       1.206488     -0.179067      0.897965
C       1.063452      0.385481     -0.519016
C      -0.074277     -0.480647     -0.970136
C      -0.308588     -1.287809      0.265083
C      -1.044487      1.367511      0.246262
N      -0.251854      0.913230     -0.687562
H       1.892596      0.749142     -1.110325
H      -0.185953     -0.807591     -1.996992
H      -1.304604     -1.299242      0.697233
H       0.111948     -2.290233      0.224915
H      -2.059338      0.996255      0.300738
H      -0.736375      2.224355      0.831846
