16
Extracted from Q-Chem output
C       1.857725     -0.587889     -0.021766
N       0.972975      0.543779      0.023852
C      -0.680314      0.548180      1.221752
C      -1.054643      1.415668      0.011628
C      -0.229060      0.430432     -0.839759
C      -0.955734     -0.874197     -0.511570
C      -1.193900     -0.787575      0.798384
H       1.360162     -1.545910      0.191236
H       2.272355     -0.657391     -1.034679
H       2.684899     -0.447223      0.673958
H       0.528231      0.732828      1.268032
H      -0.631950      2.418584      0.033477
H      -2.120384      1.428467     -0.201596
H      -0.013016      0.609488     -1.900790
H      -1.147145     -1.696063     -1.190132
H      -1.617213     -1.530078      1.459270
