11
Extracted from Q-Chem output
C      -1.452677     -0.555502     -0.399748
C      -0.303519     -0.470522      0.530200
C       1.004296     -0.072812      0.176550
C       2.297195     -0.310352      0.125539
C       0.439919      1.305837      0.016297
N       0.146122      2.414294     -0.123981
H      -1.753561     -1.611454     -0.404364
H      -2.313732      0.017983     -0.052801
H      -1.188524     -0.264496     -1.413788
H      -0.503382     -0.673011      1.582192
H       2.972812      0.541948      0.082892
