15
Extracted from Q-Chem output
O       2.616225     -0.777406     -0.190204
C       1.419831     -0.311769     -0.109338
N       0.584052     -1.310248     -0.253281
C      -0.849658     -1.123266     -0.241184
C      -1.189350      0.178410      0.488590
C      -0.322291      1.336227      0.001802
N       1.081888      0.967439      0.104706
H       1.819616     -1.796199     -0.340795
H      -1.245377     -1.097098     -1.264160
H      -1.327660     -1.966899      0.261103
H      -1.027022      0.042929      1.560898
H      -2.241189      0.430232      0.340933
H      -0.495251      2.221284      0.615179
H      -0.580512      1.590640     -1.033106
H       1.806652      1.659761      0.066520
