13
smiles: [C:1]1([H:7])([H:8])[C:2]([H:9])=[C:3]=[C:4]([H:11])[N:5]=[C:6]1[H:13].[H:10][H:12]
C        0.43683800      -1.08442000       0.14026800
C        1.28566500       0.05364000      -0.34198000
C        1.13625900       1.10029300       0.44960300
C        0.16013800       1.39064000       1.27828000
N       -1.09298500       0.70111000       1.02848700
C       -0.91470500      -0.47255500       0.58171100
H        0.82671700      -1.63998200       1.00148100
H        0.27064200      -1.81630200      -0.65220900
H        1.65993600       0.09006000      -1.35816300
H       -1.21601000       0.21047600      -2.84386900
H        0.19465400       1.96318300       2.19434000
H       -1.21115500       0.57645200      -2.19545200
H       -1.78650900      -1.12243100       0.52184100
