19
smiles: [C:1](=[C:2]([C:7]1=[C:3]([H:12])[C:4]([H:13])([H:14])[C:5]([H:15])([H:16])[C:6]1([H:17])[H:18])[H:11])([H:8])[H:9].[H:10][H:19]
C       -2.68311900      -0.44145400       0.77720100
C       -1.96997600      -0.20873000      -0.32060400
C        0.17608400       0.32766200      -1.43754600
C        1.60781100       0.65606300      -1.12958600
C        1.56733600       1.00271900       0.37133000
C        0.26840400       0.37248600       0.90553800
C       -0.56240300       0.16830600      -0.33875400
H       -2.24948600      -0.36164000       1.76760300
H       -3.72659100      -0.72468400       0.72037400
H        0.63105900      -2.44249500      -0.56224400
H       -2.44699400      -0.30482400      -1.29259700
H       -0.19747100       0.19468700      -2.44679400
H        2.24883500      -0.20966800      -1.33243700
H        1.99554300       1.47631200      -1.73843100
H        2.45320800       0.66125500       0.90714000
H        1.51659900       2.08709500       0.48858200
H       -0.23078600       1.00981600       1.63916200
H        0.44810700      -0.59068400       1.39606500
H        1.12328300      -2.97454200      -0.39192300
