19
Extracted from Q-Chem output
C      -1.882617     -0.332990      0.584786
C      -1.248859     -0.326037     -0.671928
C       0.142265      0.150734     -1.487646
C       1.054027      1.262075     -1.044662
C       1.225282      0.997348      0.455374
C       1.005116     -0.517255      0.598624
C       0.084839     -0.931666     -0.535837
H      -1.392735      0.060652      1.465748
H      -2.964843     -0.352423      0.638127
H      -1.350055     -1.872931      0.762490
H      -1.847155     -0.740237     -1.475142
H      -0.138471      0.064123     -2.529586
H       2.001714      1.165377     -1.585507
H       0.652080      2.251023     -1.269869
H       2.193065      1.320749      0.838314
H       0.458393      1.543356      1.008389
H       0.635004     -0.818003      1.579704
H       1.943853     -1.056238      0.439653
H      -0.601460     -2.169978      0.211050
