18
Extracted from Q-Chem output
C       1.891776      0.997168     -0.340004
C       1.219007     -0.161495      0.386873
C       0.004578     -0.673868     -0.369213
C      -0.912798     -1.649692      0.354752
C      -1.312981      0.014892     -0.388003
C      -1.564383      0.965504      0.758040
H       2.186088      0.705692     -1.350992
H       1.218048      1.851833     -0.429691
H       2.787956      1.330841      0.185605
H       0.945603      0.143125      1.399624
H       1.933002     -0.983030      0.501606
H       0.300240     -1.049636     -1.349460
H      -0.782001     -1.681773      1.431837
H      -1.021400     -2.617617     -0.125041
H      -1.975748     -1.192984      0.082770
H      -2.628852      1.053207      0.977525
H      -1.251451      1.940962      0.370227
H      -1.021468      0.802927      1.697432
