15
Extracted from Q-Chem output
C       0.752405      1.230374     -0.073558
C       1.536461      0.061020     -0.753808
C      -0.187192     -1.735181      0.233039
O      -1.410047     -1.443478      0.787968
C      -1.562887     -0.002485      0.735836
C      -0.580610      0.463762     -0.334528
C       0.292407     -0.749758     -0.506222
H       0.975537      1.287850      0.992717
H       0.848822      2.217633     -0.525824
H       2.462273     -0.277433     -0.291116
H       0.221075     -2.697185      0.508019
H      -1.330133      0.396750      1.729807
H      -2.605292      0.206965      0.501254
H      -1.064930      0.807531     -1.252186
H       1.714466      0.264254     -1.811719
