11
Extracted from Q-Chem output
C      -1.257013     -0.283604      0.035015
C       0.191147      0.128272      0.047949
C       1.126209     -0.492045      1.019185
O       1.083063     -0.741457     -0.722747
C       0.396949      1.504437     -0.405834
N       0.535872      2.605489     -0.695950
H      -1.697877     -0.173926     -0.957402
H      -1.337585     -1.314549      0.382118
H      -1.811737      0.347909      0.729703
H       2.019184      0.146690      1.052675
H       0.683430     -1.618856     -0.755688
