11
Extracted from Q-Chem output
C      -1.315690     -0.261919      0.015371
C       0.145247      0.096203     -0.043262
C       1.134879     -0.566751      0.840666
O       0.954211     -0.741203     -0.891852
C       0.393290      1.496603     -0.383055
N       0.545701      2.610790     -0.606534
H      -1.803516     -0.047535     -0.936096
H      -1.413938     -1.321026      0.249731
H      -1.805388      0.317235      0.799040
H       2.037644      0.043363      0.937332
H       1.076379     -1.553574     -0.164465
