15
Extracted from Q-Chem output
C       1.766526     -0.586715      0.047455
C       0.872617      0.653083      0.003542
C      -0.430376      0.412869      0.714609
O      -0.324374      0.695183      2.034192
N      -1.528344     -0.024361      0.280043
C      -1.711800     -0.382829     -1.103359
H       1.290684     -1.431506     -0.453815
H       2.719434     -0.393021     -0.446584
H       1.970927     -0.878104      1.078518
H       1.369412      1.492159      0.491900
H       0.681156      0.943892     -1.029383
H      -1.179584      0.470818      2.421742
H      -2.596464      0.125047     -1.492702
H      -0.867530     -0.148858     -1.761164
H      -1.904792     -1.456071     -1.175571
