15
Extracted from Q-Chem output
C       2.105961     -0.445612      0.371319
C       0.967827      0.443419     -0.122386
C      -0.280787      0.227444      0.661996
O      -0.298406      0.253052      1.950075
N      -1.497234     -0.005031      0.265636
C      -2.029256     -0.134985     -1.063555
H       1.861645     -1.500699      0.237766
H       3.021399     -0.236000     -0.182390
H       2.289504     -0.274202      1.431124
H       1.235728      1.496607     -0.001950
H       0.773546      0.279437     -1.183609
H      -1.524445      0.020760      1.591398
H      -2.795799      0.621424     -1.245804
H      -1.251431     -0.015896     -1.822602
H      -2.488103     -1.117023     -1.197388
