13
smiles: [C:3](=[C:4]([H:10])[H:11])([H:8])[H:9].[O:1]([C:2](=[C:5]([H:12])[H:13])[H:7])[H:6]
O        1.11007700      -0.10713700      -0.69473600
C        0.30317800       0.69545400      -1.43802900
C       -0.22890600      -0.46799900       2.33778200
C       -1.02293500      -1.23844900       1.61427600
C        0.67560200       1.18736200      -2.60747200
H        0.66122500      -0.36366400       0.11050200
H       -0.67262600       0.91072900      -1.01023700
H       -0.46658900       0.57188900       2.53139200
H        0.69257500      -0.84511000       2.76659500
H       -1.94441900      -0.86134300       1.18546000
H       -0.78527300      -2.27833500       1.42062900
H        1.64924100       0.96770600      -3.02580300
H        0.00017600       1.82172100      -3.16212700
