13
Extracted from Q-Chem output
O       1.795894      0.571379     -0.312704
C       0.698416     -0.092351     -0.660536
C      -0.047694     -0.537444      1.339116
C      -1.038033      0.007738      0.456123
C      -0.339123      0.584638     -1.314996
H       2.244401      0.054355      0.371709
H       0.777227     -1.162899     -0.804589
H       0.332279      0.094076      2.130284
H      -0.030239     -1.606695      1.502449
H      -1.422080      0.996248      0.677192
H      -1.794758     -0.656326      0.053086
H      -0.333750      1.664284     -1.305172
H      -0.846767      0.082050     -2.126356
