15
smiles: [C:1](=[C:2]([O:3][C@@:4]1([H:12])[C:5]([H:13])([H:14])[C:6]1=[O:7])[H:11])([H:9])[H:10].[H:8][H:15]
C       -2.56411400       0.68106900       0.36230400
C       -1.25087500       0.79016200       0.27180700
O       -0.41556900      -0.17589600       0.75745900
C        0.92534100       0.18234700       0.83892900
C        1.95646100      -0.89309600       0.42522200
C        1.73615800       0.30388900      -0.39134900
O        1.95412200       0.89664300      -1.39915300
H       -0.73003000      -1.35341300      -1.87763800
H       -3.02820500      -0.17016200       0.84276100
H       -3.19279200       1.44944500      -0.06257600
H       -0.75351200       1.62830200      -0.20824600
H        1.19289300       0.78834100       1.70266600
H        2.84049800      -0.99978600       1.04252900
H        1.55171100      -1.81812800       0.02679500
H       -0.21861000      -1.24283100      -2.40733300
