12
Extracted from Q-Chem output
N      -0.451763      2.531354      1.343569
C      -0.132352      1.689140      0.631314
C       0.219500      0.629199     -0.276674
C       1.286010      0.758024     -1.056367
C      -0.565997     -1.423359      0.975151
C      -0.680590     -0.573413     -0.272446
O       0.231206     -1.242139      1.848495
H       1.561611     -0.025981     -1.750834
H       1.907209      1.642877     -1.021321
H      -1.286894     -2.264649      1.024317
H      -0.456183     -1.219146     -1.126965
H      -1.730192     -0.280121     -0.379835
