17
Extracted from Q-Chem output
C      -2.040933     -0.482630      0.284300
C      -0.821709     -0.111850     -0.526105
O      -0.468308      1.289938     -0.205110
C       0.817465      1.372306     -0.077189
C       1.580199      0.120348     -0.005583
C       1.040670     -0.781638      1.087468
C       0.461281     -0.873508     -0.285159
H      -2.875518      0.185195      0.068382
H      -1.828473     -0.448857      1.352861
H      -2.339734     -1.500065      0.028361
H      -1.063552     -0.101621     -1.592295
H       1.600988      1.696909     -1.587173
H       1.175691      2.343330      0.248893
H       2.048616      0.987911     -1.174992
H       0.416160     -0.388476      1.885985
H       1.705206     -1.573717      1.408987
H       0.627325     -1.744242     -0.908852
