16
Extracted from Q-Chem output
C      -0.502104     -0.973874      1.117408
C       0.352867      0.668185     -0.713383
C      -0.992603      1.236037     -1.075952
C      -0.146959      1.925781     -0.055578
C       0.474373     -0.597234      0.045612
N       1.462965     -1.331036     -0.277011
O       1.509162     -2.498418      0.481053
H      -1.283438     -0.226501      1.243298
H       0.018697     -1.100797      2.067809
H      -0.964755     -1.933172      0.881009
H       1.139258      0.788526     -1.446944
H      -1.091438      1.685289     -2.054834
H      -1.876000      0.712064     -0.734387
H      -0.453847      1.870731      0.980978
H       0.338904      2.852885     -0.327799
H       2.285230     -2.942879      0.135908
