16
Extracted from Q-Chem output
C      -0.673147     -1.085605      0.700760
C      -0.474256      0.055790     -1.299632
C      -0.874301      1.410459     -0.805736
C       0.231112      1.274624      0.251345
C       0.375036     -0.258756     -0.175322
N       1.550653     -0.948064     -0.254252
O       1.974891     -1.231575      1.052253
H      -1.557473     -0.503683      0.950892
H      -0.107348     -1.340536      1.600915
H      -0.951711     -1.999801      0.180220
H      -0.532955     -0.395491     -2.284497
H      -0.691882      2.216695     -1.522083
H      -1.907049      1.505999     -0.454416
H      -0.007406      1.437849      1.300334
H       1.133643      1.813359     -0.021893
H       2.650566     -1.897902      0.914073
