16
Extracted from Q-Chem output
C      -1.544783     -1.270103     -0.058896
C      -0.493199     -0.296369     -0.550473
C      -0.653708      1.197456     -0.182872
C       0.845200      1.290251      0.155553
C       0.849659     -0.286246      0.160032
N       1.968699     -0.945433     -0.227411
O       2.739749     -0.867655      0.786149
H      -2.506803     -1.083265     -0.541790
H      -1.682192     -1.176924      1.020904
H      -1.254075     -2.300521     -0.272658
H      -0.337610     -0.415665     -1.627763
H      -1.011488      1.865551     -0.964721
H      -1.276176      1.322326      0.704281
H       1.126434      1.807398      1.069348
H       1.442740      1.666332     -0.675871
H       1.652298     -0.399926      1.339791
