21
smiles: [C:1]([C:2]([C:3]([H:13])([H:14])[H:20])([H:11])[H:12])([H:8])([H:9])[H:10].[C:4]1([H:15])([H:16])[C:5]([H:17])([H:18])[C:6]1([O:7][H:21])[H:19]
C       -3.14149700       0.55053600       0.11536700
C       -1.64229600       0.41628600      -0.11952000
C       -0.83777000       1.50932500       0.57242400
C        1.53068000      -1.64435700      -0.81169800
C        1.77650300      -1.55139400       0.67294500
C        2.70068600      -0.87937200      -0.27571900
O        2.66520500       0.51577000      -0.28525400
H       -3.69894300      -0.24380800      -0.38462900
H       -3.51450600       1.50642900      -0.26135000
H       -3.37776800       0.50285100       1.18156100
H       -1.30401200      -0.56289300       0.23265700
H       -1.43858500       0.43846800      -1.19437400
H       -1.13366200       2.49968300       0.21705800
H       -0.99576200       1.48796800       1.65383200
H        0.70883100      -1.06284500      -1.20886900
H        1.71086500      -2.58674100      -1.31248700
H        1.12266100      -0.90256100       1.24000100
H        2.12514700      -2.42943300       1.19965300
H        3.69018600      -1.31025700      -0.40553400
H        0.23265600       1.39599000       0.39058400
H        2.79640200       0.81504700      -1.18699000
