21
Extracted from Q-Chem output
C      -2.910261      0.898046     -0.216129
C      -1.585540      0.191537     -0.493709
C      -0.584422      0.373686      0.632199
C       0.726817     -1.896957      0.247739
C       1.975043     -1.181045      0.341097
C       1.973949      0.219721     -0.235526
O       3.033539      1.006812      0.114327
H      -3.628010      0.734872     -1.023217
H      -2.768158      1.976225     -0.106856
H      -3.360103      0.529362      0.709044
H      -1.764775     -0.873365     -0.655119
H      -1.168240      0.572137     -1.432437
H      -0.557904      1.427726      0.939152
H      -0.836898     -0.210243      1.510999
H       0.321611     -2.132346     -0.729566
H       0.406137     -2.533575      1.061145
H       2.398631     -1.155940      1.345966
H       2.711498     -1.656076     -0.332986
H       1.716794      0.275154     -1.300329
H       0.629630      0.389714      0.291742
H       3.322569      1.539177     -0.628347
