13
Extracted from Q-Chem output
C      -1.642947     -0.381317      0.008473
N      -1.215995      0.955595      0.423892
C      -0.510969      0.292585     -0.656283
C       0.898183     -0.192235     -0.488884
C       2.029736      0.637569     -0.018077
O       1.141679     -0.631430      0.886146
H      -1.415381     -1.213385      0.665546
H      -2.609292     -0.427367     -0.479079
H      -0.680583      0.896712      1.283671
H      -0.671731      0.737501     -1.634595
H       1.134632     -0.980045     -1.206382
H       1.820631     -1.312150      0.879854
H       1.570391      1.504410      0.484978
