12
Extracted from Q-Chem output
C       1.179402     -0.216361     -0.702115
C       0.598611      0.332034      0.584950
C      -1.578836      0.221708     -0.090535
O      -1.123884     -1.050176     -0.271255
C       0.237128     -1.050116      0.096464
C      -0.685534      1.061057      0.424780
H       2.214350     -0.531453     -0.686763
H       0.832334      0.211877     -1.633685
H       1.243430      0.512306      1.434806
H      -2.604705      0.385070     -0.385239
H       0.549605     -1.979398      0.551240
H      -0.862168      2.095048      0.674014
