12
Extracted from Q-Chem output
C       1.068191     -0.386737     -0.348198
C       0.506211      0.891530      0.119231
C      -1.344070      0.286831     -0.038732
O      -1.198948     -0.932618     -0.479558
C       0.013671     -1.384216     -0.005531
C      -0.511752      0.692949      1.070990
H       1.961552     -0.561333      0.260681
H       1.371093     -0.415716     -1.407009
H       0.957747      1.850699     -0.122176
H      -2.138940      0.865929     -0.491455
H       0.157067     -2.430178     -0.249641
H      -0.841821      1.522860      1.691394
