15
smiles: [H:9][H:14].[O:1](/[C:2](=[C:3](/[C:4]([C:5](=[C:6]=[O:7])[H:15])([H:12])[H:13])[H:11])[H:10])[H:8]
O        2.77868700      -0.12057300       0.77543300
C        1.67529000       0.28611900       0.09397300
C        0.53027900       0.56019200       0.69953500
C       -0.69293500       1.01181200      -0.03718900
C       -1.82763100       0.01061300       0.01495900
C       -1.66154800      -1.24284800       0.35669300
O       -1.53005900      -2.35186900       0.66392500
H        3.48885400      -0.30699900       0.16177700
H       -0.20592300      -0.91274400      -3.13960600
H        1.78676700       0.38275100      -0.98402900
H        0.46339900       0.43845900       1.77656500
H       -1.05437700       1.95066000       0.39315900
H       -0.43789900       1.23112400      -1.07914200
H       -0.56772800      -0.91018700      -2.48883900
H       -2.83761200       0.29408400      -0.25274300
