15
Extracted from Q-Chem output
O       2.166451     -0.936726      0.110579
C       1.359286      0.049094     -0.232894
C       0.182178      0.264125      0.542558
C      -0.878767      1.180714     -0.086144
C      -1.709169     -0.054058     -0.355470
C      -0.966315     -0.941298      0.423278
O      -0.925838     -2.048356      0.882558
H       2.970534     -0.931102     -0.416039
H       0.404651     -0.429256     -1.697405
H       1.772414      0.812010     -0.887349
H       0.394234      0.348742      1.608199
H      -1.298779      1.911825      0.607076
H      -0.524216      1.716589     -0.974635
H      -0.412974     -0.485737     -1.503427
H      -2.641473     -0.199392     -0.884311
