11
Extracted from Q-Chem output
N      -1.240420      0.807899      0.831581
C      -1.099272     -0.325426      0.116418
O      -2.014576     -1.006845     -0.286285
C       0.326985     -0.756742     -0.185370
C       2.215861      0.711502     -0.475405
O       1.297364      0.205494      0.278665
H      -0.445212      1.319029      1.168630
H      -2.168798      1.111757      1.065111
H       0.517286     -1.695393      0.334838
H       2.096682      0.245556     -1.491167
H       0.439241     -0.901064     -1.262038
