15
Extracted from Q-Chem output
O       2.728188     -0.415858     -0.049898
C       1.536089     -0.251661     -0.175830
N       0.624802     -1.234116     -0.305143
C      -0.826245     -1.083269     -0.252870
C      -1.194874      0.129646      0.585506
C      -0.643573      1.383749     -0.027777
N       0.994853      1.064051     -0.226409
H       1.025084     -2.156032     -0.296554
H      -1.236525     -0.973750     -1.260620
H      -1.229667     -1.999370      0.181632
H      -0.861948     -0.055732      1.619537
H      -2.283507      0.224057      0.604230
H      -0.618689      2.220893      0.670040
H       0.417847      1.350055     -1.099254
H       1.655915      1.753049      0.102984
