14
Extracted from Q-Chem output
N      -2.298860     -0.540415     -0.116380
C      -1.188965      0.225898      0.393395
C       0.022288     -0.602946      0.706759
C       1.075163     -0.028056      0.113249
N       2.423909     -0.322716      0.150416
C       0.543791      1.145555     -0.614069
N      -0.713344      1.295689     -0.506449
H      -3.062836      0.078247     -0.355952
H      -2.021772     -1.024562     -0.961348
H       0.002183     -1.487806      1.325576
H       2.949568     -0.048418     -0.662342
H       2.659875     -1.247636      0.467315
H       1.156681      1.823453     -1.205780
H      -1.530747      0.749785      1.295626
