17
Extracted from Q-Chem output
C      -1.594480     -1.415498      0.542233
C      -1.310726      0.595677     -0.835233
O      -1.226491      1.728303     -0.449680
C       2.205239      1.576741     -0.254852
C       1.779915      0.324711     -0.202978
C       0.618267     -0.155835      0.614811
C      -0.572853     -0.584122     -0.242933
H      -1.944986     -0.863948      1.417222
H      -1.143336     -2.347329      0.885273
H      -2.464038     -1.669228     -0.068235
H      -2.009356      0.337704     -1.660792
H       3.047998      1.862212     -0.872846
H       1.714744      2.361819      0.310096
H       2.287686     -0.431045     -0.799903
H       0.297106      0.627630      1.304609
H       0.932169     -1.012512      1.219596
H      -0.224623     -1.189064     -1.089637
