17
Extracted from Q-Chem output
C       1.844415      0.374624      0.234137
O       1.673258     -0.866824     -0.360595
C       0.304595     -1.249430     -0.336824
C      -0.508275     -0.002325     -0.646425
C      -2.005677     -0.187710     -0.443857
C       0.028994      1.070387      0.294075
O      -0.320660      1.047771      1.572533
H       0.933162      0.716854      1.177986
H       2.338199      1.093139     -0.419160
H       2.430455      0.300920      1.172170
H       0.028608     -1.641870      0.650314
H       0.174822     -2.034415     -1.081078
H      -0.292719      0.296581     -1.676832
H      -2.556139      0.711602     -0.723792
H      -2.374556     -1.011360     -1.057627
H      -2.219449     -0.399489      0.603510
H       0.178037      2.056767     -0.172097
