13
smiles: [C:1]([C:2]#[N:3])([H:8])([H:9])[H:10].[C:4]1([H:11])=[C:5]([O:6][H:12])[N:7]1[H:13]
C        2.16849500       0.04051500      -0.21391600
C        1.68172200      -0.75142400      -1.33450900
N        1.29874400      -1.37424600      -2.21764400
C       -1.50324400      -0.51914500      -0.12809100
C       -1.83057400       0.49013800       0.58213200
O       -2.46822800       1.60880900       0.85127100
N       -0.79468300      -0.21289900       1.25074200
H        2.47574600       1.02608200      -0.56199700
H        3.02276600      -0.45370900       0.24733200
H        1.38133200       0.15734300       0.53002200
H       -1.22421600      -1.03771800      -1.02157000
H       -2.99209500       1.87033200       0.08735800
H       -1.20355500      -0.82717500       1.95590500
