13
Extracted from Q-Chem output
C       2.307715     -0.064461     -0.328857
C       1.343388     -0.986288     -0.907530
N       0.571896     -1.710382     -1.353771
C      -1.019581      0.770178     -0.707309
C      -1.551862      0.523779      0.598981
O      -2.864590      0.421198      0.893242
N      -0.621797      0.312240      1.443243
H       3.231411     -0.590487     -0.090305
H       1.872317      0.362975      0.574734
H       2.515316      0.736719     -1.036836
H      -1.422598      0.017534     -1.405542
H      -3.396874      0.440275      0.091839
H      -0.960359     -0.227852      2.239294
