15
Extracted from Q-Chem output
C      -1.577398      0.611673      0.462573
C      -1.091992     -0.374076     -0.555607
N       0.424334      0.298551     -1.411689
C       0.329659     -0.796894     -0.423063
C       1.184887     -0.533623      0.815327
O       1.431053      0.829225      1.054237
H      -2.072807     -0.036906      1.197701
H      -0.823503      1.191500      0.998173
H      -2.353371      1.261795      0.060121
H      -0.746792      0.330674     -1.661719
H       0.618082     -0.139849     -2.311838
H       0.545803     -1.783437     -0.832385
H       2.131212     -1.077416      0.697229
H       0.687238     -0.943463      1.699145
H       1.457902      1.254729      0.188835
