13
Extracted from Q-Chem output
C      -1.686254     -0.798997     -0.069038
C      -0.254882     -0.535415      0.199050
C       0.431275      1.505009     -0.041390
C       0.727671      0.203230     -0.587976
C       1.898311     -0.463155      0.272896
O       2.934363     -0.405852      0.758115
O       0.398866     -0.990539      1.188118
H      -2.302469     -0.552009      0.794743
H      -1.810601     -1.867009     -0.272287
H      -2.026686     -0.220459     -0.925589
H       0.485770      1.650487      1.026360
H       0.399931      2.372239     -0.684800
H       0.794772      0.125366     -1.669975
