12
Extracted from Q-Chem output
O       2.568790     -0.708048      0.221226
C       1.671133     -0.017469      0.607535
C       0.555482      0.494731     -0.292703
C      -0.417086     -0.636122     -0.509550
C      -1.627068     -0.694934      0.022431
O       0.004284      1.614324      0.353781
H       1.563273      0.285565      1.668444
H       1.013100      0.765229     -1.252940
H      -0.043807     -1.442480     -1.133229
H      -0.736762      1.936352     -0.163762
H      -2.002293      0.088908      0.670086
H      -2.279499     -1.537694     -0.166228
