16
smiles: [C:1]([C:2]([C:3](=[O:4])[C:5]([O:6][H:13])([H:14])[H:15])([H:10])[H:11])([H:7])([H:8])[H:9].[H:12][H:16]
C       -2.35582700      -0.50138200      -0.27863900
C       -1.18802100       0.35144300       0.18449600
C        0.08621000       0.10631400      -0.58199100
O        0.17701400      -0.70471200      -1.47252800
C        1.30491800       0.92624900      -0.20355900
O        2.40894900       0.59282200      -0.98268300
H       -3.24636600      -0.28197700       0.31112300
H       -2.58272400      -0.31508500      -1.32838300
H       -2.12859800      -1.56259900      -0.17757300
H       -1.41917200       1.41917200       0.10569300
H       -0.96951500       0.18184100       1.24444900
H        2.52603600      -1.94819700       1.24568600
H        2.10426400      -0.09550700      -1.59074800
H        1.51291700       0.76108200       0.86222600
H        1.05187800       1.98925900      -0.31648500
H        2.69966500      -1.44419200       0.72587700
