16
Extracted from Q-Chem output
C      -2.015718     -0.779337     -0.103607
C      -1.066585      0.376286      0.185621
C       0.290044      0.195800     -0.389889
O       0.383282     -0.262075     -1.594052
C       1.558406      0.909098      0.016393
O       2.558431      0.141003     -0.499734
H      -2.990348     -0.588306      0.345044
H      -2.151647     -0.918154     -1.175470
H      -1.622083     -1.708123      0.311680
H      -1.456783      1.305582     -0.248066
H      -0.958816      0.551323      1.256951
H       1.090491     -1.216880      0.464658
H       1.391001     -0.268729     -1.707711
H       1.582650      1.061881      1.103813
H       1.500433      1.897321     -0.469969
H       1.883629     -0.955764      0.135858
