6
Extracted from Q-Chem output
C      -0.455723     -0.030323      0.135021
C       2.014554      0.133287     -0.589322
N       0.901217      0.059994     -0.263123
H      -1.010347     -0.631528     -0.584205
H      -0.518711     -0.497186      1.117100
H      -0.892106      0.966555      0.181700
