6
Extracted from Q-Chem output
C      -0.398279      0.002096      0.025537
C       1.182928      0.245478     -0.685149
N       1.381868     -0.206147      0.392948
H      -0.823730     -0.655098     -0.723455
H      -0.559310     -0.402994      1.020645
H      -0.771442      1.017581     -0.033626
