10
Extracted from Q-Chem output
C      -0.753724      0.855396      0.099758
O      -0.791009      0.030265     -1.052524
C       0.384923     -0.724768     -0.954061
C       0.705503     -0.407871      0.490422
N       1.250053     -0.573629      1.553605
H      -1.722240      0.868829      0.604222
H      -0.404865      1.868504     -0.121692
H       0.226065      0.290559      1.382574
H       1.186092     -0.366964     -1.612045
H       0.213644     -1.790473     -1.132688
