15
Extracted from Q-Chem output
C      -2.073979      0.273979      0.373082
N      -1.029623     -0.628359     -0.919411
C      -0.804126     -1.154898      0.354329
N       0.400741     -0.873614      0.857358
C       0.969582     -0.095043     -0.081142
C       2.346978      0.449569      0.075439
C       0.096563      0.080841     -1.150045
H      -2.663154      0.682940     -0.437685
H      -2.723608     -0.227340      1.085370
H      -1.426546      1.014020      0.832775
H      -1.412737     -1.966355      0.725947
H       2.400686      1.098417      0.951050
H       3.058322     -0.363202      0.227929
H       2.648344      1.020237     -0.802787
H       0.220371      0.667762     -2.047449
