17
Extracted from Q-Chem output
C      -2.045736     -0.314062     -0.069762
C      -1.079747     -0.256865     -1.220303
N      -0.204285      0.910778     -1.426731
C       0.374990     -0.388826     -1.044959
C       1.120054     -0.769511      0.190123
C       2.168867      0.170884      0.618038
N       1.019675      0.397595      1.499865
H      -2.929690      0.292659     -0.277680
H      -1.608644      0.044195      0.863742
H      -2.374867     -1.341585      0.096102
H      -1.497296     -0.624667     -2.153564
H      -0.279589      1.539226     -0.633008
H       0.913396     -0.845667     -1.875616
H       0.565288     -0.664103      1.451090
H       3.051012     -0.193433      1.135232
H       2.368821      1.022505     -0.028743
H       0.427108      1.152976      1.176193
