17
smiles: [C:1](=[C:2]([C:3](/[C:4](=[C:5](\[C:6](=[O:7])[H:17])[H:15])[H:14])([H:12])[H:13])[H:11])([H:8])[H:9].[H:10][H:16]
C       -2.27019200      -0.15080200       0.51330000
C       -1.27009900      -0.93121300       0.88890700
C       -0.15781700      -1.37027900      -0.02805400
C        1.14856300      -0.78737900       0.41867900
C        1.82719000       0.21609000      -0.14129500
C        1.43657800       0.97977300      -1.34235300
O        0.38446800       0.90700800      -1.92883900
H       -3.04639100       0.14267900       1.20957600
H       -2.33991900       0.22466800      -0.50173900
H       -0.41264400       2.23128700       1.09951800
H       -1.21691800      -1.27889000       1.91825800
H       -0.38419300      -1.07520100      -1.04926900
H       -0.07438800      -2.46177400       0.01110200
H        1.57707600      -1.23113600       1.31510600
H        2.76860800       0.52237700       0.30370500
H       -0.07662700       2.89478700       1.13514600
H        2.21474400       1.68469200      -1.69994600
