16
smiles: [C:1]([C:2](=[C:3]([H:13])[H:14])[H:12])([H:8])([H:9])[H:10].[O:4]=[C:5]([O:6][H:11])[N:7]([H:15])[H:16]
C       -1.90706700      -0.58700100      -0.53528900
C       -1.85612300       0.58625300       0.39061800
C       -1.14389200       0.64553600       1.50508100
O        1.41355700      -1.26267100       0.20212300
C        1.92400100      -0.35411900      -0.40358600
O        1.37383200       0.87714700      -0.49984300
N        3.09628600      -0.41168900      -1.07295900
H       -2.92772700      -0.96778800      -0.62639500
H       -1.58374700      -0.30444400      -1.54054000
H       -1.26837400      -1.39923500      -0.18563800
H        0.54889900       0.83830100      -0.00485400
H       -2.45889900       1.44652100       0.10818100
H       -1.14900100       1.52735600       2.13413400
H       -0.52724800      -0.18711700       1.82825500
H        3.46968500       0.39640300      -1.53134700
H        3.61144300      -1.26978600      -1.05497500
