15
Extracted from Q-Chem output
C      -1.363009     -0.348328      0.953150
N       0.081710     -1.004862     -0.885428
C       1.337946     -1.095097     -0.699467
C       1.889957     -0.038197      0.171008
C       0.860349      0.731080      0.512947
C      -0.391720      0.161174     -0.110766
N      -1.060207      1.147425     -0.936671
H      -2.223833     -0.810742      0.467660
H      -0.883744     -1.096232      1.585088
H      -1.707272      0.482206      1.569073
H       1.922194     -1.887637     -1.159252
H       2.927027      0.069124      0.455599
H       0.863359      1.614855      1.135210
H      -1.847598      0.710145     -1.400351
H      -0.432088      1.469633     -1.662900
