12
Extracted from Q-Chem output
O       0.461738      0.244338     -2.155956
C       0.365768      0.124647     -0.806999
C      -0.905690     -0.395408     -0.207640
C      -0.633290     -0.123320      1.277800
C       1.254931      0.342134      0.153277
O       0.783659      0.065050      1.415193
H       1.349234      0.520656     -2.394110
H      -1.034230     -1.458010     -0.436908
H      -1.787634      0.133676     -0.571486
H      -0.931091     -0.935485      1.939240
H      -1.129126      0.797974      1.599821
H       2.282377      0.670512      0.096269
