12
Extracted from Q-Chem output
O       0.403409      0.410024     -1.951342
C       0.360972      0.032087     -0.637994
C      -0.905626     -0.658035     -0.168772
C      -1.013113      0.099918      1.049481
C       1.422649      0.073191      0.255313
O       1.252688      0.053614      1.492222
H       0.835978      1.261741     -2.032587
H      -0.827330     -1.738294     -0.051999
H      -1.669890     -0.401935     -0.903075
H      -0.941226     -0.340846      2.030835
H      -1.282561      1.145544      0.986922
H       2.440696      0.049756     -0.160500
