9
smiles: [C-:3]#[O+:4].[C:1](=[O:2])([H:8])[H:9].[C:5](#[N:6])[H:7]
C       -1.73153300      -0.18021500       0.36735100
O       -0.90007700       0.37390000      -0.28953800
C        1.87409000       1.26476400      -1.57535100
O        1.62391100       2.03128900      -2.35763500
C        1.38974500      -1.10847400       0.97429500
N        1.06345100      -1.85482800       1.77705000
H        1.69342200      -0.41104200       0.22429800
H       -1.46588400      -0.92690000       1.14010700
H       -2.81199600       0.02321300       0.23748800
