9
Extracted from Q-Chem output
C      -1.365687     -0.076665      0.134934
O      -0.821664      0.829392     -0.524728
C       1.039304      0.703536     -0.546016
O       1.664551      1.464266     -1.105174
C       1.177242     -0.665267      0.386281
N       2.240103     -1.110713      0.628972
H       0.066363     -0.891198      0.607500
H      -1.657892      0.095893      1.177382
H      -1.756515     -0.970324     -0.365464
