11
Extracted from Q-Chem output
C      -1.629186     -0.242291      0.069460
N      -0.187759     -0.212766      0.003475
C       0.611690      0.822545     -0.004162
N       1.843791      0.321551     -0.077550
C       1.821126     -1.085545     -0.117680
N       0.525531     -1.382312     -0.063831
H      -2.019494     -0.722529     -0.826253
H      -1.933425     -0.816964      0.942469
H      -2.014896      0.773081      0.141713
H       0.314699      1.857092      0.040221
H       2.685838      0.867403     -0.100663
