12
Extracted from Q-Chem output
C      -1.245181     -0.310416     -0.060434
O      -0.789184      0.776117     -0.865769
C       0.348447      1.316251     -0.436803
C       1.250879     -0.674662     -0.295817
O       0.787642      0.154260      1.022283
C       0.031790     -0.907406      0.479294
H      -1.883886      0.050990      0.752376
H      -1.808940     -0.978333     -0.711012
H       1.047871      1.537314     -1.231772
H       0.261155      2.074093      0.341117
H       2.060593     -1.324305      0.053597
H      -0.069460     -1.752725      1.153787
