17
Extracted from Q-Chem output
C      -1.560792      0.127293      0.179974
C      -0.143262     -0.180156      1.232617
O       0.176530     -1.426820      1.424274
C       1.143237     -1.754944      0.356904
C       0.727853     -0.929923     -0.822672
C       0.344924      0.294480     -0.014999
C       0.604059      1.702858     -0.404583
H      -2.007716      1.035942      0.571999
H      -1.559709      0.136807     -0.914552
H      -2.105402     -0.761803      0.486218
H      -0.352772      0.428878      2.104342
H       1.182885     -2.836609      0.258941
H       1.568966     -0.721156     -1.487990
H      -0.120593     -1.247810     -1.490304
H       0.158218      1.936303     -1.375656
H       0.247027      2.416865      0.338313
H       1.684409      1.826978     -0.505044
