11
smiles: [H:10][H:11].[O:1]=[C:2]1[N:3]([H:7])[C:4]([H:8])([H:9])[C:5]#[C:6]1
O        1.90742900      -0.16424200       0.01625400
C        0.71784700      -0.12090500      -0.03550700
N       -0.13818800      -1.19982500      -0.13081200
C       -1.57026600      -0.83861800      -0.17779800
C       -1.40652300       0.63239200      -0.09223100
C       -0.26553700       1.04811100      -0.01848700
H        0.22242000      -2.14012500      -0.16621300
H       -2.12010200      -1.26003600       0.66554900
H       -2.03810700      -1.16641000      -1.10775800
H        2.28584200       3.00444700       0.59846700
H        2.40739800       2.28249600       0.46245700
