13
Extracted from Q-Chem output
N      -1.813681      0.961736     -0.251015
C      -1.883467     -0.110512      0.403410
O      -0.899063     -1.016377      0.444576
C       0.250140     -0.764709     -0.355544
C       1.182930      0.222360      0.339675
C       3.380167      0.395793     -1.005839
N       2.397458      0.331623     -0.386846
H      -2.667985      1.497996     -0.160832
H      -2.720484     -0.454185      1.012793
H      -0.047477     -0.378724     -1.331254
H       0.742360     -1.728935     -0.471889
H       0.712332      1.203324      0.397413
H       1.406511     -0.124139      1.349968
