14
Extracted from Q-Chem output
C       0.559152      2.108903      0.872501
C      -0.935826      0.228335     -0.025845
C      -1.531574     -2.043485     -0.932520
C      -0.668219     -1.136426     -0.483656
N       0.722261     -1.394796     -0.382112
C       0.244299      0.756563      0.333367
C       1.230863     -0.311369      0.083747
H       1.259339      2.637391      0.221240
H      -0.342076      2.714623      0.964186
H       1.024914      2.038649      1.858437
H      -1.909464      0.696346      0.006617
H      -2.589843     -1.824230     -1.000998
H      -1.184657     -3.021792     -1.239057
H       2.298027     -0.223142      0.266512
