11
Extracted from Q-Chem output
C       2.062221     -0.156771      0.136234
C       1.591466      0.658271      0.958741
C       0.374301      0.432039     -0.238940
C      -0.821615     -0.151411      0.509563
C      -2.000230     -0.225251     -0.353156
N      -2.907093     -0.274013     -1.053656
H       2.566987     -0.855028     -0.499648
H       0.220533      1.465012     -0.536936
H       0.509930     -0.124655     -1.176585
H      -0.587889     -1.153934      0.871200
H      -1.047985      0.462917      1.381195
