10
Extracted from Q-Chem output
N      -1.817620     -0.276781     -0.219153
C      -0.486897     -0.089645     -0.006798
N       0.429851     -1.038989     -0.225761
C       1.573409     -0.405846     -0.007692
N       1.461204      0.845140      0.430579
N       0.008121      1.073723      0.432287
H      -2.442119      0.351146      0.253842
H      -2.116575     -1.233356     -0.285347
H       2.542832     -0.866584     -0.135090
H       0.863270      1.633372     -0.271828
