13
Extracted from Q-Chem output
C       0.924296      0.773996      0.081643
C      -0.533788      0.804412     -0.317656
C      -1.155972     -0.568901     -0.059139
O      -0.194933     -1.491224     -0.547671
C       0.986735     -1.374605      0.084407
H       1.556618      1.397740     -0.552145
H       1.123919      0.987193      1.127932
H      -0.628554      1.036036     -1.379533
H      -1.074588      1.572256      0.240487
H      -1.316409     -0.735124      1.013820
H      -2.091980     -0.722588     -0.596994
H       0.835767     -1.276865      1.174134
H       1.571933     -0.317092     -0.282768
