13
smiles: [C:1]([C:2]([O:3][H:11])([H:10])[H:12])([H:7])([H:8])[H:9].[C:4](=[O:5])=[N:6][H:13]
C       -1.60909900       0.28440900       0.11096900
C       -0.83077100      -0.82038300       0.80027900
O       -0.15761300      -1.66772400      -0.11235300
C        2.06117800       1.30422800      -1.33720500
O        1.82818200       2.38070400      -1.70067500
N        2.16820500       0.15650900      -0.97716500
H       -2.15605000       0.88641100       0.83988000
H       -2.32468800      -0.13620400      -0.59731900
H       -0.94023100       0.95349900      -0.43750000
H       -1.50752100      -1.47060000       1.35733500
H        0.45935400      -1.13833700      -0.62087900
H       -0.12437000      -0.39342100       1.52421000
H        3.01890700      -0.28472700      -0.68086300
