13
Extracted from Q-Chem output
C      -1.462961      0.137340     -0.355062
C      -0.264518     -0.310230      0.445297
O      -0.156998     -1.735258      0.502147
C       1.132239      0.962389     -0.139513
O       0.856496      2.048268      0.229489
N       1.958304      0.171644     -0.745588
H      -1.567118      1.220939     -0.329166
H      -2.370878     -0.308791      0.056891
H      -1.370480     -0.171057     -1.400799
H      -0.293103      0.028631      1.478571
H      -0.349020     -2.092953     -0.369615
H       0.999638     -0.469147     -0.110373
H       2.859626      0.528454     -1.051769
