11
Extracted from Q-Chem output
N       2.921152      0.454980      0.364952
C       1.966446     -0.137429      0.135942
C       0.727369     -0.839942     -0.168500
C      -0.407931     -0.482892      0.806775
C      -1.349037      0.804863     -0.054200
O      -1.616360     -0.566067      0.101395
H       0.874845     -1.910282      0.011184
H       0.477790     -0.720414     -1.228023
H      -0.497368      0.971463      0.775208
H      -2.145934      1.424305      0.349979
H      -0.968101      1.083259     -1.032877
