11
Extracted from Q-Chem output
N       1.832933     -0.228781     -0.311834
C       0.482844      0.036333     -0.069720
C      -0.094183      1.184368      0.363193
O      -1.451752      1.048922      0.390648
C      -1.727951     -0.198621     -0.021013
C      -0.596533     -0.872048     -0.322969
H       2.458482      0.421146      0.136042
H       2.095286     -1.175561     -0.088507
H       0.296324      2.139936      0.667771
H      -2.769882     -0.471894     -0.053911
H      -0.525568     -1.883801     -0.689699
