17
Extracted from Q-Chem output
C      -1.144195     -1.348328      0.392880
C      -0.541289     -0.129735     -0.255831
C       0.839347     -0.290805     -0.811149
C       2.025598      0.214865      0.979095
O       2.052235      1.543546      0.852113
C      -1.433413      0.901590     -0.796230
O      -0.778577      1.098546      0.450045
H      -1.302534     -2.132900     -0.349661
H      -0.481777     -1.743238      1.165619
H      -2.101355     -1.103004      0.851993
H       1.140870      0.537099     -1.450922
H       0.943360     -1.243552     -1.334786
H       1.965036     -0.423979     -0.079065
H       1.202293     -0.127765      1.618684
H       1.192836      1.929169      1.070964
H      -2.510402      0.770089     -0.730928
H      -1.089112      1.539978     -1.604942
