13
Extracted from Q-Chem output
N      -1.428563     -0.202427     -0.774424
C      -0.800241     -0.449351      0.431268
O      -0.038131      0.612394      0.899135
C      -0.955630     -1.504520      1.222417
O       1.792828      0.101412     -0.521351
C       1.075598      1.001666      0.227208
N       1.063064      1.201474     -1.185021
H      -0.858176      0.302810     -1.437955
H      -1.859569     -1.020138     -1.172709
H      -1.590084     -2.328036      0.927450
H      -0.471439     -1.532154      2.185694
H       1.644596      1.680431      0.856703
H       1.779419      1.884506     -1.430933
