15
smiles: [C:4](=[C:5]=[O:6])([H:12])[H:13].[O:1](/[C:2](=[C:3](\[C:7]([H:10])([H:14])[H:15])[H:11])[H:9])[H:8]
O       -1.44939800       0.94648000       0.91353400
C       -1.80920000      -0.23776000       0.33660800
C       -1.24780000      -0.68955000      -0.77474600
C        1.72357900      -0.18606100       1.67076400
C        2.68494400       0.67037500       1.89919800
O        3.53397400       1.42755400       2.10070300
C       -0.16998100       0.01067300      -1.53996000
H       -1.98538300       1.10019900       1.69061400
H       -2.58874900      -0.79517800       0.84707400
H       -0.47364300       0.18525600      -2.57526200
H       -1.60681300      -1.64305400      -1.14410400
H        0.73467900       0.17889900       1.44157000
H        1.93518700      -1.24301800       1.71343100
H        0.07261300       0.97266200      -1.09039200
H        0.74352700      -0.58902300      -1.57036100
