15
smiles: [C:1]([C@:2]1([H:11])[C:3]([H:12])([H:13])[N:4]1[H:14])([H:7])([H:8])[H:9].[C:5](=[O:6])([H:10])[H:15]
C       -1.49950600       0.23818000       1.49058500
C       -0.64052000       0.15907700       0.25890400
C       -0.26461100      -1.14815800      -0.31224600
N        0.73664900      -0.31310900       0.35301200
C        1.93975400       0.90206000      -1.72027800
O        1.02999900       1.01352800      -2.48830200
H       -1.24278000       1.11307400       2.09241900
H       -2.55631200       0.31276700       1.22561300
H       -1.37247500      -0.65128400       2.11328700
H        2.17812300       1.68704100      -0.97723400
H       -0.75335500       0.99113900      -0.42993500
H       -0.12776500      -1.26384100      -1.38095100
H       -0.61975200      -2.03762600       0.19855900
H        0.92135200      -0.66415700       1.28585200
H        2.59105000       0.00715900      -1.71072000
