15
Extracted from Q-Chem output
C      -1.787106      0.369534      0.716257
C      -0.865390     -0.334105     -0.198473
C       0.300145     -1.098553      0.277775
N       1.018087      0.127510      0.467933
C       1.548371      0.682784     -0.829962
O       2.576090      0.071628     -1.254211
H      -1.933319      1.408079      0.412714
H      -2.771050     -0.111933      0.649132
H      -1.438774      0.352883      1.747159
H       0.565093      0.570022     -1.448440
H      -1.163724     -0.387768     -1.238920
H       0.764479     -1.771393     -0.445796
H       0.112386     -1.615075      1.220809
H       1.656269      0.151966      1.257687
H       1.610952      1.783839     -0.674666
