12
smiles: [C:6](#[N:7])[H:12].[O:1]([C:2]([C:3]#[N+:4][N-:5][H:11])([H:9])[H:10])[H:8]
O       -1.64712400       0.08101000      -1.10846300
C       -1.67205200       0.34706700       0.27325200
C       -0.39430700       0.82506700       0.85014000
N        0.71900600       0.98917900       0.49619600
N        1.93358900       1.05232700       0.26607300
C        1.37904800      -1.56480900      -0.81046300
N        0.43653200      -2.11507000      -1.15223700
H       -1.01495900      -0.61969100      -1.28187800
H       -1.98348400      -0.52843100       0.85473200
H       -2.42915500       1.11566000       0.42889000
H        2.15229600       1.98754100      -0.07654400
H        2.25953100      -1.05095400      -0.49113600
