14
Extracted from Q-Chem output
C      -0.271059     -2.447736      0.105559
C      -1.339805      1.169544     -0.515609
C      -0.165124      1.394650      0.380378
C       0.908233      0.623346      0.516821
C       1.156532     -0.635962     -0.246921
O       0.746663     -1.791014      0.542295
H      -0.391673     -3.251231      0.867955
H      -1.297618      0.218431     -1.044183
H      -1.428175      1.978876     -1.245197
H      -2.259510      1.177194      0.074418
H      -0.211063      2.291537      0.993327
H       1.666492      0.907144      1.238942
H       2.220691     -0.781454     -0.433673
H       0.606763     -0.686193     -1.185112
