10
Extracted from Q-Chem output
O       2.362473     -0.427082     -0.018202
C       1.184980      0.214920     -0.108672
N       0.141520     -0.674686     -0.471980
C      -1.018640     -0.454080     -0.158844
C      -2.272454     -0.301653      0.137861
N       1.014731      1.445189      0.063769
H       2.226609     -1.348748     -0.260513
H      -2.673555     -0.730756      1.044887
H      -2.908496      0.285652     -0.509098
H       1.895901      1.903286      0.275827
