16
Extracted from Q-Chem output
C      -0.291598      2.446995     -0.376439
C      -0.221675      1.358002      0.599676
C       0.891689     -1.472748      0.700358
O       1.820445     -2.386799      0.151160
C       0.045196     -0.807513     -0.376812
C      -1.013285      0.182612      0.182560
H      -0.598220      2.192412     -1.402044
H      -1.129467      3.014343      0.073882
H       0.561505      3.124935     -0.361403
H       0.238809     -1.967045      1.432050
H       1.475975     -0.728116      1.238940
H       1.340110     -3.117613     -0.241787
H      -0.496663     -1.573186     -0.940075
H       0.705483     -0.308222     -1.091917
H      -1.759530      0.376664     -0.603677
H      -1.500988     -0.295975      1.035883
