8
Extracted from Q-Chem output
O       2.569830     -0.127265      0.742867
C       0.549787     -0.033657     -0.205103
N       1.688655      0.403928     -0.182854
N      -2.651601     -0.446632      0.195828
N      -1.616677      0.197806      0.278664
N      -0.579713     -0.465610     -0.432932
H       3.373988      0.371789      0.576476
H      -3.347741      0.095306      0.718857
