8
Extracted from Q-Chem output
O       2.230972     -0.018455     -0.115654
C       0.568591      0.068224     -0.023186
N       1.193951      1.154797     -0.110803
N      -1.932740      0.332244      0.282088
N      -1.514190     -0.828239      0.308033
N      -0.156076     -0.935015      0.082680
H       2.547605     -0.041376      0.799362
H      -2.938113      0.267818      0.461433
