14
Extracted from Q-Chem output
C      -1.990015      0.367671      0.535240
C      -0.583094      0.272676      0.086364
C       0.545551     -0.467568      0.720293
C       1.675028     -0.150592     -0.263577
C       0.890377     -0.079209     -1.536852
O      -0.330607      0.353158     -1.186311
H      -2.049039      0.798384      1.535861
H      -2.466176     -0.622526      0.576103
H      -2.569114      0.992004     -0.144846
H       0.742945     -0.209521      1.758508
H       0.306632     -1.549179      0.664190
H       2.097812      0.844359     -0.021937
H       2.482244     -0.879314     -0.259733
H       1.231587      0.334808     -2.475069
