14
Extracted from Q-Chem output
C      -1.860564      0.367190      0.431520
C      -0.421461      0.624101      0.295739
C       0.558023     -0.354222      0.851202
C       1.602605     -0.248861     -0.274537
C       0.718049      0.283371     -1.394179
O      -0.239675     -0.393286     -1.761837
H      -2.089321      0.866890      1.386998
H      -2.156641     -0.683028      0.522783
H      -2.449720      0.874270     -0.331466
H       0.950129      0.052739      1.788277
H       0.185140     -1.368421      1.037859
H       2.392084      0.460291     -0.029173
H       2.039010     -1.207646     -0.561365
H       1.027651      1.179628     -1.953327
