17
Extracted from Q-Chem output
C       1.432110     -0.600245      0.751723
C       1.308935      0.806274      0.129218
C       0.687361     -1.598542     -0.073694
C      -0.198915     -0.794366     -0.914557
C      -1.483982     -0.697646      0.002009
C      -1.287585      0.830929      0.081487
C       0.034790      0.736097     -0.709025
H       2.456788     -0.935940      0.927959
H       0.962596     -0.669313      1.745054
H       1.278706      1.604508      0.874231
H       2.169235      1.000553     -0.516485
H      -0.410426     -1.188140     -1.906333
H      -1.400983     -1.229390      0.951218
H      -2.384403     -1.048467     -0.497158
H      -2.066367      1.380465     -0.446670
H      -1.205781      1.242568      1.089190
H       0.075775      1.357277     -1.602760
