17
Extracted from Q-Chem output
C       1.277790     -0.357520      1.075763
C       1.274621      0.739040      0.061551
C       1.230101     -0.723226     -0.371757
C      -0.163779     -0.509259     -0.984585
C      -1.418463     -0.737029     -0.106554
C      -1.373851      0.753933      0.334561
C      -0.118860      0.971893     -0.545854
H       2.235908     -0.526699      1.551508
H       0.432321     -0.526541      1.732193
H       2.096817      1.439385     -0.004382
H       2.012670     -1.319859     -0.821714
H      -0.233704     -0.773183     -2.037875
H      -1.310253     -1.477851      0.687088
H      -2.306927     -0.987838     -0.686182
H      -2.237580      1.327677     -0.001680
H      -1.239853      0.936732      1.401871
H      -0.156956      1.770346     -1.283951
