11
Extracted from Q-Chem output
C      -1.596033     -0.024954     -0.149569
C      -0.178277      0.153987      0.304375
O       0.095007      0.648427      1.408474
C       0.883719     -0.287489     -0.529317
O       2.192731      0.193692      0.179960
H      -2.135828     -0.621848      0.586008
H      -1.655837     -0.511383     -1.122984
H      -2.076142      0.953391     -0.199885
H       0.938801     -0.108644     -1.592761
H       1.883930     -0.882270      0.125953
H       1.727937      0.570776      0.992688
