8
Extracted from Q-Chem output
N      -1.233855      0.103859      0.096765
C      -0.100076      0.695453      0.001847
C       1.056642     -0.122831     -0.087459
N       0.637742     -1.389140     -0.048245
N      -0.405519     -1.861535      0.038276
H      -2.056161      0.687816      0.159976
H       0.022354      1.775825     -0.013522
H       2.093378      0.137787     -0.174630
