13
Extracted from Q-Chem output
C       1.577616      0.496599      0.135049
C       0.336408      0.007527     -0.575357
C      -0.582173     -0.881603      0.266069
N      -1.794835     -0.071062      0.265125
C      -1.727728      1.077110     -0.399827
O      -0.502821      1.151744     -0.912931
H       2.120609      1.204428     -0.491089
H       1.309050      0.995733      1.068082
H       2.241360     -0.339638      0.364391
H       0.599106     -0.469776     -1.520987
H      -0.753898     -1.859558     -0.186603
H      -0.200445     -1.027044      1.279850
H      -2.632947     -0.336917      0.747402
