13
Extracted from Q-Chem output
C       1.560780      0.489777      0.159875
C       0.316986      0.012629     -0.551533
C      -0.539225     -0.997235      0.206852
N      -1.908655     -0.439571      0.110447
C      -1.828521      0.787901     -0.389310
O      -0.594596      1.144069     -0.728076
H       2.053736      1.278434     -0.408425
H       1.308027      0.881492      1.146924
H       2.264631     -0.335496      0.284378
H       0.559798     -0.346318     -1.554225
H      -0.531452     -1.991550     -0.236799
H      -0.259756     -1.090431      1.258587
H      -2.404626      0.586844      0.714654
