10
Extracted from Q-Chem output
N      -1.306415      0.527226      0.016317
C       0.093335      0.138566     -0.022666
C       1.069636      0.948611      0.451023
N       2.206102      0.163086      0.192341
N       1.920026     -0.963830     -0.364821
N       0.587863     -1.023453     -0.523547
H      -1.897206     -0.061407      0.604329
H      -1.745357      0.634442     -0.898674
H      -1.214407      1.456482      0.456131
H       0.176095     -1.840884     -0.935584
