10
Extracted from Q-Chem output
N      -1.363802      0.520949     -0.019118
C      -0.028643     -0.001597     -0.107201
C       0.839472      0.888432      0.423678
N       2.070508      0.270614      0.282257
N       1.936894     -0.884408     -0.282523
N       0.627308     -1.091612     -0.542411
H      -2.003234      0.040553      0.606609
H      -1.822076      0.757669     -0.893846
H      -0.707860      1.423983      0.491695
H       0.341107     -1.945739     -0.984289
