18
smiles: [C:1]([C:2]([C:3]([C:7]([H:16])([H:17])[H:18])([H:13])[H:14])([H:11])[H:12])([H:8])([H:9])[H:10].[N:4](=[C:5]=[O:6])[H:15]
C       -1.60958600      -0.77147500      -0.32937400
C       -1.40771100       0.72253000      -0.55573400
C       -0.07154300       1.25563100      -0.04106800
N        1.11955100      -1.96568100       1.91051900
C        1.88475100      -1.05892500       2.13516700
O        2.68794600      -0.27466200       2.42660800
C        1.14590300       0.66228300      -0.74057700
H       -2.60565100      -1.08691900      -0.64531500
H       -0.88690900      -1.36867000      -0.88875300
H       -1.50113100      -1.02518400       0.72872700
H       -1.49549800       0.94427500      -1.62514700
H       -2.21780700       1.27034600      -0.06520500
H       -0.05723100       2.34328200      -0.15912200
H       -0.00094800       1.06632200       1.03583600
H        0.30336300      -1.91095100       1.33014600
H        1.09489200       0.82460900      -1.82069000
H        1.22739400      -0.41321000      -0.57131900
H        2.06902100       1.11903500      -0.37919200
