12
Extracted from Q-Chem output
C      -1.967433     -0.427343      0.013408
C      -0.577979      0.072092     -0.062309
C       0.274179      1.104834     -0.338448
N       1.557666      0.633652     -0.114531
C       1.501680     -0.643732      0.285938
N       0.229323     -0.979043      0.321380
H      -0.712500     -1.629627      0.489513
H      -2.441132     -0.482642     -0.969828
H      -2.598229      0.163926      0.680447
H       0.097157      2.112285     -0.671090
H       2.406391      1.160799     -0.225313
H       2.353783     -1.254196      0.531167
