12
smiles: [C+:2](=[C:3]1[N-:4][O:5][C:6]([H:11])=[C:7]1[H:12])[H:10].[O:1]([H:8])[H:9]
O       -2.23231000       0.42089200      -0.37671800
C       -1.43533400      -0.60986400       0.01613000
C       -0.07812900      -0.14747200       0.00212900
N        0.11697500       1.15199700      -0.21503100
O        1.43326000       1.35655000      -0.18574700
C        2.08436700       0.19448800       0.04945800
C        1.19039200      -0.79707000       0.17837400
H       -1.58577200       1.08636900      -0.61507900
H       -2.74501300       0.80710300       0.33448600
H       -1.39281900      -1.69872800       0.20593100
H        3.15897000       0.26356000       0.09139500
H        1.37132000      -1.84081100       0.37000000
