15
Extracted from Q-Chem output
C       2.824572     -0.998650     -1.529869
C       1.737107     -0.330630     -0.824811
C       0.850971      0.225606     -0.240383
C      -0.251633      0.883383      0.455408
C      -1.591077      0.313760      0.015333
C      -3.351852      0.558171      1.635235
O      -2.653628      1.046649      0.670148
H       3.751838     -0.933792     -0.958927
H       2.595473     -2.053929     -1.684900
H       2.992534     -0.540419     -2.505541
H      -0.236718      1.957588      0.255721
H      -0.141223      0.755115      1.535743
H      -1.740244      0.445005     -1.056030
H      -2.982163     -0.492546      1.807767
H      -1.686082     -0.743229      0.277421
