15
Extracted from Q-Chem output
C       2.749656     -0.997130     -1.539187
C       1.693238     -0.259378     -0.857063
C       0.833567      0.356558     -0.293378
C      -0.236528      1.085850      0.381093
C      -1.571414      0.374015      0.265435
C      -2.757921     -0.085031      1.658904
O      -2.584308      1.096181      0.948569
H       3.677289     -0.961224     -0.966347
H       2.470578     -2.044122     -1.665997
H       2.941854     -0.574782     -2.526509
H      -0.351222      2.081904     -0.053837
H      -0.009731      1.221792      1.440632
H      -1.881363      0.116434     -0.746904
H      -3.420859     -0.716542      1.007851
H      -1.441441     -0.608590      0.850040
