10
Extracted from Q-Chem output
C      -1.297139     -0.121008      0.176485
C      -0.041967      0.064247     -1.281387
N      -0.551061     -0.445937     -2.205890
O       1.450174     -1.026323      0.792053
C       1.482540      0.141325      0.475341
N       0.628320      0.797709     -0.381967
H      -2.053630     -0.608802     -0.417559
H      -0.733388     -0.760389      0.846493
H      -1.522344      0.883155      0.505020
H       2.214676      0.843898      0.900716
