14
Extracted from Q-Chem output
C       1.592765      0.113551      0.076421
C       0.459257      0.834147     -0.630191
C      -0.721155     -1.894937      0.368090
C      -1.543284     -0.749816      0.345955
O      -1.293689      0.455429      1.135179
C      -0.953560      0.539690     -0.201176
H       1.609156     -0.948601     -0.180385
H       1.511940      0.209538      1.159532
H       2.550800      0.535550     -0.229996
H       0.573969      1.915987     -0.497877
H       0.082927     -1.739085      1.102394
H       0.510139      0.659440     -1.708447
H      -2.592527     -0.862667      0.084936
H      -1.683645      1.068115     -0.817234
