10
Extracted from Q-Chem output
O      -0.927359      1.655620      0.431255
C      -0.204273      0.615290      0.875160
C      -0.386422     -0.647506     -0.370659
O      -1.010460     -0.202163     -1.331662
C       1.042820      0.248819      0.304543
C       1.407549     -0.659092     -0.472466
H      -1.201849      1.390384     -0.482129
H      -0.363849      0.351658      1.915810
H      -0.528390     -1.572278      0.187251
H       2.136318     -1.184434     -1.054159
