14
smiles: [H:8][H:14].[O:1]=[C:2]([C:3]1=[C:6]([H:13])[C:5]([H:11])([H:12])[C:4]1([H:9])[H:10])[H:7]
O        2.88988700      -0.56080000      -0.17431600
C        2.09371600       0.31846200      -0.38652200
C        0.64694700       0.11620400      -0.44121800
C       -0.23646600      -1.09892400      -0.27990100
C       -1.42196700      -0.11459600      -0.53057100
C       -0.36994900       0.95891300      -0.65835100
H        2.42646000       1.36322600      -0.55739600
H       -0.80754400       0.29949500       2.99005200
H       -0.10655100      -1.87168800      -1.03797600
H       -0.21867200      -1.56229500       0.70679400
H       -2.00264600      -0.30836500      -1.43444000
H       -2.11018000       0.00567600       0.30825300
H       -0.42604000       2.02362200      -0.85413400
H       -0.50321900       0.58147200       2.37177400
