14
Extracted from Q-Chem output
O       2.541339     -0.244613     -0.785776
C       1.919420      0.325043      0.069589
C       0.530394     -0.027357      0.497447
C      -0.235516     -1.121877     -0.261994
C      -1.484962     -0.216493     -0.238492
C      -0.579535      0.987431      0.098431
H       2.359584      1.204895      0.587808
H       0.530013     -0.182310      1.580717
H       0.173346     -1.246491     -1.265029
H      -0.307848     -2.099733      0.211597
H      -2.075047     -0.152523     -1.151892
H      -2.150475     -0.461715      0.590164
H      -0.301763      1.550064     -0.794878
H      -0.918948      1.685679      0.862310
