12
Extracted from Q-Chem output
N       3.296887     -0.355784      0.923468
C       2.277975     -0.212027      0.400510
C       1.017509     -0.040824     -0.214541
C      -1.369630     -1.156458     -0.551085
N      -1.809994     -0.163078      0.150668
C      -1.112941      0.930824      0.375477
N       0.219127      0.949995      0.322339
H       0.965322     -0.228048     -1.270430
H      -0.781034     -1.044042     -1.448448
H      -1.802748     -2.135437     -0.366540
H      -1.597771      1.800274      0.798447
H       0.667750      1.646258      0.902940
