14
Extracted from Q-Chem output
C       1.535787      0.939264     -0.611975
N       1.291348     -0.041779      0.168739
C       0.129202     -0.772583      0.129798
N       0.273938     -2.161328      0.359849
C      -1.149448     -0.298603     -0.005210
O      -2.256407     -0.828604      0.086917
N      -1.266758      1.273089      0.017276
H       2.455690      1.501251     -0.479272
H      -0.391600      1.738468      0.266198
H       0.908413      1.195473     -1.472965
H      -0.522941     -2.539653      0.855272
H       1.132415     -2.341132      0.860413
H      -1.589936      1.617567     -0.881572
H      -2.000552      1.444063      0.703344
