11
Extracted from Q-Chem output
O      -0.415418      1.044912     -1.355962
C      -0.874812      0.714502     -0.041738
C       0.477096      0.189630      0.345073
C      -0.157572     -1.065407      0.881461
O      -1.360021     -0.618751      0.182682
C       0.817015      0.421446     -1.028848
O       1.552916      1.036180      0.034467
H      -1.515077      1.482060      0.385724
H       0.214084     -2.019010      0.506915
H      -0.326829     -1.106207      1.959018
H       1.376242     -0.106998     -1.786830
