13
Extracted from Q-Chem output
C       2.067344      0.321210     -0.420906
O       1.104331     -0.677532     -0.140052
C      -0.181028     -0.262414     -0.022876
C      -1.153220     -1.344929      0.155875
N      -2.378425     -1.104085      0.358156
C      -1.053069      2.049761     -0.259986
N      -0.530739      0.951535     -0.049592
H       1.847298      0.824980     -1.364916
H       3.022518     -0.192917     -0.490420
H       2.107874      1.063768      0.380951
H      -0.712464     -2.344011      0.092247
H      -2.907669     -1.967678      0.440068
H      -1.179043      2.655111      0.649364
