14
Extracted from Q-Chem output
C      -1.783027     -0.764743     -0.234650
C      -0.407923     -0.197319     -0.411138
C      -0.055224      1.093227      0.235104
N       1.409664      1.025018      0.031826
C       1.878194     -0.193344      0.231236
O       2.931583     -0.730897      0.325048
O       0.593384     -0.973949      0.490245
H      -2.119914     -0.669316      0.797278
H      -1.821395     -1.810652     -0.539316
H      -2.467307     -0.198925     -0.870181
H       0.003835     -0.389235     -1.412874
H       0.220303     -0.327216      1.262856
H      -0.483682      2.002318     -0.177736
H       2.042209      1.804583      0.006683
