9
Extracted from Q-Chem output
O       2.432253      0.856697      0.189477
C       0.314256     -0.027865     -0.448125
C       1.214940      0.917526     -0.422490
N      -2.476947     -0.577125      0.197956
N      -1.430366     -1.169579      0.426033
N      -0.469556     -0.967276     -0.567335
H       2.569422     -0.017353      0.562630
H       1.018809      1.867013     -0.900454
H      -3.113532     -0.837170      0.957703
