9
Extracted from Q-Chem output
O       1.982250      0.302758     -0.411588
C       0.426211     -0.022277     -0.144879
C       0.844715      1.163305      0.284210
N      -2.034796     -0.330064      0.119716
N      -1.380612     -1.368019     -0.021935
N      -0.047797     -1.161528     -0.347174
H       2.497384     -0.077581      0.310951
H       0.715837      2.138494     -0.156092
H      -2.981763     -0.631530      0.363862
