13
smiles: [H:8][H:13].[N:1](=[C:2]1\[C:3]([O:4][H:10])=[C:5]([H:11])[C:6]([H:12])=[N:7]1)\[H:9]
N        2.15338100      -0.23701500       0.86949500
C        0.97804400      -0.16536700       0.42733900
C       -0.04000200      -1.26689900       0.31378600
O        0.28583700      -2.49632700       0.71673900
C       -1.14702800      -0.73081700      -0.21066900
C       -0.80023400       0.68737600      -0.41337800
N        0.38644500       1.02647400      -0.06318200
H        0.09922900       3.43870000      -1.04165300
H        2.35483900      -1.19296800       1.16322500
H       -0.45055800      -3.09971200       0.58970800
H       -2.09163100      -1.19863900      -0.44389500
H       -1.48736800       1.41760900      -0.82988800
H       -0.24946000       4.01023100      -1.36741100
