13
Extracted from Q-Chem output
N       1.762969      0.781293      0.331208
C       0.595783      0.290447     -0.069350
C       0.005172     -1.011863      0.034428
O       0.730534     -2.118983      0.298005
C      -1.361552     -0.803959      0.074140
C      -1.558566      0.573898     -0.220295
N      -0.393650      1.177173     -0.341068
H       1.527154      2.052493     -0.208982
H       2.532814      0.151073      0.087358
H       0.161470     -2.797111      0.667509
H      -2.131279     -1.560270      0.143836
H      -2.475199      1.031556     -0.565585
H       0.607356      2.340167     -0.393528
