12
Extracted from Q-Chem output
O       1.558281      1.477527      2.609606
C       1.474531      0.720874      1.733623
C       1.556399     -0.185963      0.819001
C       1.056407     -0.809561     -0.230194
C      -0.945039      0.724839     -0.420712
C      -0.256360     -0.520010     -0.902523
N      -2.094603      0.812424      0.089974
H       1.617002     -1.631641     -0.675135
H      -0.379294      1.652309     -0.541162
H      -0.907261     -1.393044     -0.776739
H      -0.072496     -0.436699     -1.980870
H      -2.535685     -0.105276      0.163676
