21
Extracted from Q-Chem output
C      -1.160604     -0.964118     -0.272627
C      -0.319722      0.316447     -0.328538
C      -0.742694      1.523674      0.403829
C      -2.168886      1.603316      0.761900
C       1.203890      0.090119     -0.210774
C       1.574655     -0.401667      1.185394
C       1.766276     -0.832699     -1.288030
H      -0.760925     -1.730158     -0.937435
H      -2.191961     -0.782625     -0.575429
H      -1.180839     -1.380547      0.736784
H      -0.467259      0.788849     -1.328360
H       1.646785      1.081485     -0.338634
H      -2.619766      2.014637     -0.157404
H      -2.359169      2.350670      1.532385
H      -2.697028      0.669140      0.987371
H       2.658192     -0.483380      1.294194
H       1.151764     -1.389060      1.390298
H       1.213119      0.292708      1.947790
H       1.465323     -0.513715     -2.289329
H       2.857824     -0.833135     -1.254855
H       1.441140     -1.867289     -1.153119
