13
Extracted from Q-Chem output
C      -1.836110     -0.392385     -0.660835
N      -0.991743      0.255808      0.356750
C      -0.610524      0.302424     -1.062512
C       0.265417     -0.376004     -0.102914
C       1.503470      0.287423      0.428790
O       1.723721     -0.041722      1.782832
H      -1.858119     -1.480447     -0.687489
H      -2.790016      0.100186     -0.809772
H       0.939614      0.218682      2.272725
H      -0.472250      1.219098     -1.615675
H       0.283360     -1.466698     -0.106508
H       2.380952     -0.058490     -0.120145
H       1.421475      1.373254      0.290995
