14
Extracted from Q-Chem output
O       0.306798      0.678862      1.511484
C       0.135576      0.048044      0.280651
C       0.633177      0.868439     -0.932801
C      -0.681820      1.476780     -1.150999
C      -1.113242     -0.808297      0.212930
C       0.234227     -1.452787      0.256306
H       1.246202      0.705569      1.709261
H       1.452681      1.502790     -0.581607
H       0.976332      0.217356     -1.737388
H      -0.803703      2.226398     -0.347445
H      -1.701061     -0.814537      1.120262
H      -1.674172     -0.840629     -0.707966
H       0.541441     -1.904372      1.190583
H       0.614035     -1.926762     -0.638614
