16
Extracted from Q-Chem output
C      -1.894448     -0.510282      0.042658
C      -1.173624      0.676898      0.622499
N      -0.081275      0.521539      1.589486
C       0.207989      1.059334      0.266123
C       1.085851      0.337537     -0.728170
C       2.174866     -1.734555     -0.154058
O       1.113091     -1.090939     -0.499152
H      -2.429064     -0.221787     -0.865159
H      -2.633104     -0.882444      0.755391
H      -1.217858     -1.326765     -0.205037
H      -1.833739      1.499409      0.884507
H       0.191141     -0.455892      1.635128
H       0.445322      2.120473      0.275456
H       0.721740      0.479943     -1.747264
H       2.116150      0.698883     -0.656132
H       3.010882     -0.983782     -0.100660
