12
Extracted from Q-Chem output
C      -1.705163     -0.604322      0.166297
C      -0.265675     -0.278398      0.077511
C       0.457159      0.861573      0.052018
O       0.001399      2.125967      0.111091
N       1.798675      0.579118     -0.048071
C       1.839745     -0.707862     -0.078971
O       0.649071     -1.303692     -0.008694
H      -2.047688     -1.153332     -0.713657
H      -1.927371     -1.207604      1.049185
H      -2.273698      0.322471      0.232344
H       0.764703      2.708070      0.070314
H       2.708843     -1.341989     -0.152254
