14
Extracted from Q-Chem output
C      -1.573008     -1.176150      0.765514
C      -0.012382      0.296485     -0.294108
C      -0.993183      1.209290      0.103658
O      -2.116912      0.803434      0.451890
C       1.410283      0.634688     -0.201498
O       1.818082      1.605563      0.414337
N       2.275777     -0.245769     -0.796639
H      -1.378014     -0.911567      1.793338
H      -2.608296     -1.321221      0.496372
H      -0.888439     -1.893906      0.339296
H      -0.350942     -0.386382     -1.067023
H      -0.808208      2.288631      0.097632
H       1.953412     -0.900904     -1.483581
H       3.244401      0.020405     -0.817274
