18
Extracted from Q-Chem output
C      -2.317047      0.248006      0.418835
C      -1.066655      0.235755     -0.433594
C       0.149358      1.081814      0.001813
C       1.071913     -0.059200     -0.479172
C       2.313583     -0.390999      0.320171
C      -0.146859     -1.003674     -0.399640
H      -2.078153      0.018804      1.460980
H      -3.041420     -0.493523      0.072650
H      -2.804528      1.225820      0.395897
H      -1.320025      0.471126     -1.471538
H       0.185515      1.177606      1.091651
H       0.275641      2.071252     -0.440246
H       1.336097      0.105765     -1.527894
H       2.796611     -1.295779     -0.057034
H       3.043549      0.421006      0.274720
H       2.065290     -0.558847      1.371702
H      -0.269539     -1.759748     -1.176584
H      -0.193333     -1.495183      0.577283
