18
Extracted from Q-Chem output
C      -2.593831      0.287915      0.375838
C      -0.756905      0.361364     -0.881453
C       0.288812      1.119928     -0.102823
C       1.204698     -0.062740     -0.528501
C       2.335268     -0.470496      0.393305
C      -0.075531     -0.944678     -0.564933
H      -2.008185      0.459268      1.270786
H      -2.942865     -0.739301      0.307373
H      -3.419561      0.996655      0.304401
H      -2.041714      0.531082     -0.700845
H       0.188367      1.089747      0.988503
H       0.523589      2.136278     -0.420680
H       1.578263      0.097006     -1.540482
H       2.806880     -1.392155      0.044991
H       3.103466      0.304885      0.436649
H       1.970294     -0.640574      1.408749
H      -0.162962     -1.756701     -1.287757
H      -0.243397     -1.331799      0.447499
