15
Extracted from Q-Chem output
C      -1.648547     -0.592954     -0.004214
C      -0.333048      1.027590     -0.131103
O      -0.309235      1.524834      1.108726
C       0.678167     -0.019805     -0.508712
C       2.036786      0.199515     -0.128103
N       0.242995     -1.035031      0.406439
H      -2.261073      0.006751      0.666852
H      -1.972971     -0.495276     -1.041428
H      -1.791425     -1.636603      0.287706
H      -0.693862      1.769661     -0.843454
H      -0.012249      0.805758      1.688676
H       0.549374     -0.252821     -1.570341
H       2.255370      0.609902      0.848189
H       2.865690      0.030934     -0.803033
H       0.438997     -1.971276      0.041984
