11
Extracted from Q-Chem output
N       1.861711     -0.145437     -0.714747
C       0.559445     -0.126460     -0.299684
C       0.083296      0.808008      0.641062
N      -1.177560      0.824559      0.979297
C      -1.950047     -0.085751      0.370472
N      -1.545046     -0.974971     -0.509064
N      -0.267939     -1.003035     -0.847785
H       2.561992      0.229199     -0.101158
H       2.128868     -0.958975     -1.243076
H       0.749110      1.532308      1.104048
H      -3.003830     -0.099446      0.620636
