19
smiles: [C:1]([C:2]([C:3]([H:12])([H:13])[H:14])=[C:4]([O:5][C:6](=[C:7]([H:17])[H:19])[H:16])[H:15])([H:8])([H:9])[H:10].[H:11][H:18]
C       -1.61128700      -0.92744200      -0.70649800
C       -1.26025500      -0.08231900       0.48021900
C       -2.39878600       0.48755100       1.27223400
C       -0.00935800       0.17331300       0.83682900
O        1.06365200      -0.31936000       0.14442500
C        2.30347500       0.00412900       0.58475800
C        3.39947100      -0.40027600      -0.03432100
H       -2.19464700      -0.34851000      -1.42836300
H       -0.72574300      -1.31207800      -1.20801500
H       -2.23245100      -1.77488800      -0.40254900
H        0.70711000       1.39276600      -2.68386900
H       -3.03842700      -0.30943900       1.66241700
H       -3.02967600       1.12263400       0.64339200
H       -2.05176000       1.08597400       2.11558300
H        0.23850200       0.78978600       1.69624300
H        2.33023900       0.61604700       1.48308800
H        4.36541700      -0.11717800       0.35650300
H        0.74979000       1.00205200      -2.05149500
H        3.35334600      -1.00796600      -0.92811100
