19
Extracted from Q-Chem output
C      -1.108949     -0.918088     -0.873617
C      -0.782940     -0.023373      0.297574
C      -1.904302      0.868383      0.775330
C       0.164671     -0.409048      1.220838
O       1.099355     -1.417584      0.988611
C       1.928497     -0.329104      0.735067
C       2.211220      0.116495     -0.528836
H      -1.565621     -0.351618     -1.686821
H      -0.223851     -1.424712     -1.254063
H      -1.819044     -1.690498     -0.563215
H       0.094604      0.978128     -0.579046
H      -2.765218      0.266970      1.083780
H      -2.242821      1.535979     -0.018874
H      -1.599914      1.482140      1.623898
H       0.137034     -0.036628      2.240640
H       2.433990      0.070893      1.608200
H       2.995958      0.852226     -0.645513
H       0.914504      1.000285     -0.856127
H       2.004202     -0.514518     -1.384144
