15
smiles: [H:9][H:15].[O:1]=[C:2]=[N:7][C:6]([C:5](/[C:4](=[N:3]/[H:8])[H:10])([H:11])[H:12])([H:13])[H:14]
O        3.10312300      -0.43009700      -0.37728300
C        2.09226100       0.14900300      -0.36722000
N        0.50276800      -1.36320100       1.63349100
C       -0.56330900      -1.37720400       0.95780500
C       -1.05191200      -0.15878700       0.23205500
C       -0.09652700       1.02406000       0.28588500
N        1.09572700       0.80573500      -0.49599100
H        0.68891400      -2.26541100       2.06286400
H       -0.75246500       1.47386500      -3.26841600
H       -1.19508700      -2.26874100       0.86399100
H       -2.01390200       0.13334300       0.66846400
H       -1.26376200      -0.42601000      -0.80805900
H        0.17436900       1.23454200       1.32241700
H       -0.59310000       1.90527200      -0.11955600
H       -0.21098700       1.31547500      -2.78253700
