12
Extracted from Q-Chem output
C      -1.189103      0.661681     -0.231569
C      -0.578959     -0.646382      0.266374
O      -1.433975     -1.704317     -0.096166
C       0.826338     -0.897621     -0.026059
C       1.731043      0.103850      0.153420
C       2.607495      0.941746      0.263930
H      -1.177011      0.681689     -1.321495
H      -0.635408      1.518438      0.151049
H      -2.224855      0.723541      0.099967
H      -0.508486     -0.589214      1.379838
H      -0.878100     -2.475563     -0.237755
H       3.403096      1.644348      0.351058
