14
Extracted from Q-Chem output
N      -2.223539     -0.468776      0.333568
C      -1.151080      0.272330     -0.133319
C       0.112467     -0.464889     -0.096238
C       1.380707      0.048954      0.072853
N       2.437400     -0.720970      0.483942
C       1.576399      1.295661     -0.527411
N      -1.242459      1.487413     -0.528448
H      -3.142531     -0.187559      0.042502
H      -2.103598     -1.454854      0.473891
H       0.034719     -1.542838     -0.225550
H       3.336086     -0.468731      0.108843
H       2.274742     -1.705028      0.614254
H       0.833786      2.044360     -0.233157
H      -2.179304      1.854019     -0.375502
