14
Extracted from Q-Chem output
C       1.609384      0.092486     -0.358070
C       0.568427      0.234825      0.724381
C      -0.751839      0.885230      0.337221
C      -1.478088     -0.246050     -0.400053
O      -0.463472     -1.093526     -0.928561
C       0.649917     -1.019058     -0.082989
H       1.464870      0.645615     -1.278137
H       2.639987     -0.036302     -0.051932
H       0.889408      0.259603      1.756776
H      -0.600446      1.751862     -0.309924
H      -1.309014      1.216247      1.214094
H      -2.095458      0.094339     -1.231942
H      -2.109655     -0.816860      0.292604
H       0.985978     -1.968410      0.316533
