9
Extracted from Q-Chem output
C      -0.114878      0.817568      0.250776
C       1.082398      0.133994      0.100817
N       1.061324     -1.192937      0.248249
N       1.001393     -2.301447      0.305417
N      -2.056808     -0.848847      0.210775
C      -1.391271      0.133665     -0.001693
H      -0.105191      1.896937      0.188768
H       2.056740      0.542989     -0.117953
H      -1.524652      0.825761     -0.927804
