19
smiles: [C-:2]1=[C:7]([H:19])[C+:6]([H:18])[C@@:4]([C:5]([H:15])([H:16])[H:17])([H:14])[C:3]1([H:12])[H:13].[C:1]([H:8])([H:9])([H:10])[H:11]
C       -2.63523700      -1.00662800      -0.14812600
C       -0.45504900       1.93676900       0.17348500
C        0.34717500       1.04786500       1.06053000
C        1.44925900       0.35289600       0.24016100
C        1.58081100      -1.15818600       0.41873900
C        1.06424500       0.76138700      -1.13929000
C       -0.00288900       1.58765000      -1.15607600
H       -1.89113200      -1.18434400      -0.92309300
H       -2.33444800      -1.51560200       0.76633200
H       -3.59990000      -1.38972000      -0.47749000
H       -2.71483400       0.06287600       0.04075300
H        0.70464000       1.57691900       1.94733400
H       -0.38063200       0.31814600       1.44641300
H        2.41557100       0.81615100       0.47627400
H        0.64129000      -1.65961300       0.17476300
H        1.83171100      -1.39952300       1.45281100
H        2.36220200      -1.57305800      -0.22109000
H        1.60725100       0.41682800      -2.01636200
H       -0.43883400       1.99616000      -2.06023900
