17
smiles: [C:1]([C:2]1=[C:3]([H:11])[C:4]([H:12])([H:13])[C:5]1([H:14])[H:15])([H:8])([H:9])[H:10].[O:6]=[C:7]([H:16])[H:17]
C        1.76025000      -1.15944500      -0.07890400
C        0.38030800      -0.69711000      -0.37344000
C       -0.16634300       0.15351600      -1.24272500
C       -1.58093100      -0.07075100      -0.76171900
C       -0.94696400      -1.06544600       0.25686400
O       -0.82319800       1.95731300       1.82858500
C        0.13398800       2.12957700       1.13292600
H        2.48512500      -0.68846500      -0.74406800
H        1.84021200      -2.24374600      -0.19483200
H        2.03657300      -0.92657800       0.95298600
H        0.24823700       0.78269500      -2.02214700
H       -2.26355500      -0.52809500      -1.48155300
H       -2.07445700       0.79312500      -0.31106600
H       -1.25296300      -2.10742700       0.13416800
H       -1.06434800      -0.78721100       1.30709400
H        0.08613200       2.73989400       0.21071400
H        1.11996900       1.68752200       1.37350800
