11
Extracted from Q-Chem output
C       2.506604     -0.646150     -0.590359
C       1.398648     -0.543482     -0.152998
C       0.053150     -0.377536      0.378382
C      -1.072752     -0.884622     -0.515856
N      -1.854726      0.154360     -0.534398
N      -1.467854      1.342328      0.154451
C      -0.348106      1.047288      0.670244
H       3.489343     -0.748382     -0.986298
H      -0.036006     -0.961376      1.307127
H      -2.738787      0.209769     -1.014359
H       0.205509      1.767258      1.256851
