11
Extracted from Q-Chem output
C       2.713692     -0.689731     -0.095879
C       1.545074     -0.440832     -0.040757
C       0.155957     -0.099199      0.013304
C      -0.959796     -1.015546     -0.178327
N      -1.978795     -0.123186     -0.195849
N      -1.674621      1.189942     -0.142869
C      -0.386305      1.238150     -0.007066
H       3.750868     -0.923134     -0.152150
H      -0.332643     -0.806066      0.969974
H      -2.950364     -0.370471     -0.264818
H       0.141486      2.176298      0.063270
