13
Extracted from Q-Chem output
O      -0.216672      0.395125      1.156307
C       0.535900     -0.676118      0.533662
C      -0.422513     -0.649191     -0.675410
C      -1.118861      0.424705      0.115109
C      -2.189265      1.185666     -0.000548
C       1.928736     -0.334446      0.290988
C       3.074393     -0.063932      0.077037
H      -2.451526      1.898311      0.769147
H       0.470996     -1.581150      1.141225
H      -0.990618     -1.562332     -0.839485
H       0.032937     -0.314070     -1.604695
H      -2.813348      1.103835     -0.878556
H       4.093512      0.182437     -0.107938
