10
smiles: [H:5][H:6].[O:1]=[C:2]1[C:3]([H:7])([H:8])[C:4]1([H:9])[H:10]
O        1.74938300      -0.31784800       0.97186500
C        0.64009900       0.03379100       0.72253300
C       -0.23932500       1.08559000       0.20934800
C       -0.78821700      -0.28718900       0.71375200
H        1.15802400      -1.26760900      -1.94130000
H        0.63811100      -1.12583200      -2.45506900
H       -0.25903700       1.27257200      -0.85797800
H       -0.42346000       1.95566700       0.82868700
H       -1.15948500      -0.98315600      -0.02939500
H       -1.32428700      -0.29604400       1.65556000
