10
Extracted from Q-Chem output
O       1.756908     -0.547114      0.444659
C       0.584257     -0.244031     -0.031437
C      -0.252125      0.982110     -0.010714
C      -0.800681     -0.361521      0.488388
H       1.298314     -0.855984     -0.889408
H       0.482012     -0.688141     -1.343530
H      -0.673615      1.383083     -0.922813
H       0.051999      1.718579      0.722430
H      -1.577940     -0.830764     -0.099809
H      -0.864066     -0.527304      1.556580
