8
Extracted from Q-Chem output
N       0.236838      1.325038     -0.058262
C       0.840811      0.242374     -0.278878
N       0.136625     -0.977147     -0.466514
N      -0.617998     -1.439618      0.884077
C      -1.200796     -0.875621     -0.041828
H       0.880490      2.108683      0.000026
H       1.918707      0.123254     -0.400044
H      -2.160081     -0.510248     -0.375769
