15
Extracted from Q-Chem output
O      -0.115355      2.551054      0.269999
C      -0.096669      1.353287      0.176634
C      -1.262064      0.491577     -0.283787
C      -1.005522     -0.956306      0.167464
C       0.462859     -1.302479      0.374728
C       1.301896     -0.568429     -0.582298
C       1.094147      0.502356      0.507176
H      -1.338589      0.598775     -1.368906
H      -2.184026      0.900226      0.127861
H      -1.569127     -1.181759      1.073663
H      -1.339562     -1.682857     -0.582332
H       0.812256     -0.169045      1.418540
H       0.884899     -0.269119     -1.544196
H       2.335314     -0.889495     -0.670432
H       1.992859      1.006669      0.847526
