12
Extracted from Q-Chem output
O       2.860078     -0.802620     -0.406383
C       1.745805     -0.356616     -0.416492
C       1.159335      0.279029      0.810672
C      -0.997683      0.687585     -0.077451
N      -0.002347      0.749879      0.969305
C      -1.631470     -0.694349     -0.179344
O      -2.726091     -0.881600     -0.617374
H       1.125721     -0.403193     -1.330529
H       1.856186      0.328108      1.648558
H      -0.609479      0.922392     -1.076248
H      -1.790236      1.403378      0.136910
H      -0.989240     -1.535429      0.161765
