17
Extracted from Q-Chem output
O       1.842515     -1.283844     -1.275414
C       1.818398     -0.730825      0.040093
C       0.557169     -0.017733      0.360457
C      -0.772094     -0.661505      0.467623
C      -1.671069     -0.435183     -0.757539
C      -0.253493      2.157282      0.759422
O       0.664371      1.266001      0.502263
H       1.713762     -0.565510     -1.898815
H       2.661033     -0.049117      0.199834
H       1.951449     -1.593302      0.698388
H      -1.764741      0.624817     -1.001993
H      -1.275194     -0.281022      1.370536
H      -0.623089     -1.732894      0.613392
H      -2.674488     -0.826610     -0.582428
H      -1.251352     -0.943799     -1.625670
H      -1.284598      1.866352      0.878114
H       0.124100      3.153162      0.909377
