16
Extracted from Q-Chem output
C       2.491394     -0.790708      0.477341
C       1.015720     -0.588307      0.340870
C      -1.064026     -0.055172     -0.950413
C      -1.944856      0.336722      0.194534
C      -1.631587      1.337361     -0.878355
C       0.394458     -0.276739     -0.788301
H       2.920412     -0.086313      1.195032
H       3.002100     -0.657306     -0.477486
H       2.716079     -1.795131      0.846045
H       0.426166     -0.713188      1.246334
H      -1.525579     -0.691477     -1.699310
H      -2.942418     -0.080553      0.231131
H      -1.488781      0.484632      1.164438
H      -0.944177      2.135209     -0.627779
H      -2.412244      1.611501     -1.575777
H       0.985998     -0.168325     -1.696505
