10
Extracted from Q-Chem output
O      -0.245256     -0.710732     -1.636493
C       0.370102      0.057704     -0.677903
C       0.651794     -0.464898      0.719910
O       0.763405      0.669591      1.348757
C      -0.548486      0.793567      0.304332
O      -1.204311     -0.236155      0.803318
H      -1.039538     -1.075367     -1.224386
H       1.218082      0.589757     -1.104643
H       1.001771     -1.416559      1.123865
H      -0.962156      1.804322      0.284526
