15
Extracted from Q-Chem output
C       1.756329     -0.516030     -1.477031
C       1.608226      0.192806     -0.189892
C       0.278119      0.522613      0.192642
C       0.205667      1.730919      0.788186
C      -0.950256     -0.228567     -0.202668
C      -1.768558     -0.895797      0.812245
O      -2.194897      0.308966      0.204106
H       2.752483     -0.410926     -1.905555
H       1.677126     -1.572306     -1.163512
H       0.991152     -0.348552     -2.245027
H       1.113107      2.191466      1.154162
H      -0.730796      2.274925      0.844733
H      -0.956221     -0.650156     -1.204501
H      -2.341171     -1.779522      0.546598
H      -1.476801     -0.808535      1.855132
