9
Extracted from Q-Chem output
C       1.011093     -0.410188      0.291412
C       0.178070      0.815733      0.119754
O       0.497719      1.938860      0.292860
C      -1.591334     -0.589893     -0.542643
O      -1.181926      0.621194     -0.302644
H       2.000612     -0.092353      0.608153
H       1.058910     -0.971485     -0.640136
H       0.561219     -1.074469      1.027840
H      -2.649277     -0.428234     -0.839707
