9
Extracted from Q-Chem output
C       1.039539     -0.439671      0.257985
C       0.091445      0.655612     -0.109754
O       0.264724      1.827220     -0.091567
C      -1.611419      0.011060      0.042386
O      -1.025334      0.111068     -1.075633
H       1.372694     -0.271513      1.280512
H       1.904612     -0.361867     -0.403508
H       0.595342     -1.426431      0.174052
H      -2.695673     -0.193431     -0.054031
