17
Extracted from Q-Chem output
C      -2.059372     -0.589048     -0.267764
C      -0.771258      0.171001     -0.545981
O      -0.991938      1.292558     -1.378737
C      -0.099690      0.572892      0.762389
C       2.302033     -0.917160      0.336025
C       2.231405      0.408696      0.382361
O       1.155450      1.193776      0.582452
H      -1.866133     -1.518742      0.271614
H      -2.745244      0.013987      0.335591
H      -2.556292     -0.831577     -1.206724
H      -0.089314     -0.461641     -1.118173
H      -1.548813      1.921063     -0.912672
H      -0.719830      1.316586      1.272059
H      -0.004711     -0.291842      1.428310
H       1.449155     -1.573304      0.438347
H       3.268319     -1.376116      0.186251
H       3.115709      1.024155      0.262123
