13
Extracted from Q-Chem output
N      -2.154546     -0.336589      0.359580
C      -0.845798      0.019354      0.208530
C      -0.319299      1.352823      0.076960
C       0.994334      1.234716     -0.323400
C       1.267380     -0.159455     -0.211742
O       2.382939     -0.764035     -0.041032
N       0.113537     -0.851446     -0.032567
H      -2.411862     -1.246848      0.015815
H      -2.846552      0.380901      0.241926
H      -0.913200      2.257002      0.079240
H       1.729036      2.013713     -0.448604
H       1.962938     -1.836884      0.023283
H       0.922374     -2.267235      0.150237
