14
Extracted from Q-Chem output
C       1.230008     -0.772962     -0.013568
C       0.840696      0.369198      0.732068
O       1.410230      1.575289      0.510603
C      -0.312792      0.181935     -0.560291
O      -0.166037      1.160890     -1.344884
C      -1.636262     -0.242038      0.060501
H       1.023464     -1.768360      0.362375
H       1.990388     -0.665868     -0.778889
H       0.073685     -0.860675     -1.041782
H       0.391755      0.222874      1.709401
H       0.938077      1.888312     -0.318305
H      -2.345071     -0.466159     -0.736536
H      -2.026312      0.588575      0.648144
H      -1.527656     -1.118342      0.701338
