13
Extracted from Q-Chem output
N      -1.925980      1.079464     -0.391214
C      -0.694933      0.567951     -0.371393
O      -0.671287     -0.748144     -0.319243
C       0.636136     -1.323155     -0.068367
C       1.519691     -0.341685      0.665726
C       1.592364      0.944984     -0.162387
N       0.358239      1.349380     -0.487859
H      -2.016445      2.069723     -0.523432
H      -2.731159      0.482076     -0.400568
H       1.057603     -1.591962     -1.040714
H       0.435456     -2.232146      0.495609
H       1.108099     -0.127518      1.660219
H       2.510149     -0.774621      0.805125
