19
Extracted from Q-Chem output
C       1.663208      0.872307      0.626183
C       0.731313     -0.205226      0.123755
C       1.380317     -1.089334     -0.914908
O      -0.015520     -0.890185      1.131104
C      -0.734506     -0.062986      0.214489
C      -1.376208      1.165991      0.814910
C      -1.663308     -0.791652     -0.727589
H       2.596669      0.419959      0.968115
H       1.241182      1.428415      1.458621
H       1.905668      1.573449     -0.175801
H       1.623015     -0.512526     -1.810526
H       0.750056     -1.927097     -1.200158
H       2.312959     -1.494988     -0.516605
H      -1.579779      1.908846      0.040067
H      -2.329405      0.892672      1.272890
H      -0.759236      1.624498      1.582640
H      -2.593459     -1.032754     -0.208185
H      -1.239672     -1.721329     -1.097151
H      -1.913294     -0.158061     -1.581851
