19
Extracted from Q-Chem output
C       0.990634      0.994644      0.116106
C       1.086428     -0.769093      0.616432
C       1.540539     -1.608030     -0.553299
O      -0.265141     -1.124345      0.955738
C      -0.600213      0.049542      0.346528
C      -1.310457      0.975605      1.305495
C      -1.263677     -0.076279     -0.999742
H       1.904298      0.810343     -0.449493
H       1.232656      1.549819      1.014399
H       0.418629      1.651247     -0.564373
H       0.903187     -1.644198     -1.443479
H       1.582649     -2.625563     -0.154749
H       2.549479     -1.317158     -0.852450
H      -1.456261      1.970929      0.884378
H      -2.288603      0.538200      1.522031
H      -0.757362      1.044741      2.240565
H      -2.226511     -0.573193     -0.863045
H      -0.684594     -0.666013     -1.705886
H      -1.443512      0.910748     -1.430969
