17
Extracted from Q-Chem output
C       2.243004      0.298999     -0.352217
N       1.307829      0.017010     -1.241346
C       0.433363     -0.850319     -0.304075
O       0.572795     -2.064439     -0.378679
N      -0.864189     -0.207058     -0.242257
C      -1.730720     -0.958223      0.654672
C      -0.873863      1.207765      0.054902
H       1.016162     -0.323060      0.786239
H       2.771875     -0.530507      0.099718
H       2.708888      1.282612     -0.300776
H       0.884410      0.762128     -1.767801
H      -1.423815     -0.861475      1.707224
H      -1.699639     -2.009169      0.381191
H      -2.749335     -0.584244      0.547878
H      -0.587911      1.812902     -0.807863
H      -1.885416      1.503175      0.328772
H      -0.205666      1.460398      0.896279
