19
smiles: [C:1]([C:2](=[C:3]([H:13])[H:14])[H:11])([H:8])([H:9])[H:10].[C:4]1([H:15])=[C:5]([H:17])[C:6]1([O:7][H:19])[H:18].[H:12][H:16]
C       -1.85458700      -0.72089200      -0.49870700
C       -1.84863800       0.48724600       0.38258000
C       -1.43879200       0.50938800       1.64129600
C        2.08559900      -1.04157000       0.86235500
C        1.73815800      -1.23300800      -0.37448900
C        2.27050200       0.10642000      -0.04935800
O        1.44552900       1.24193300       0.00621300
H       -1.46736800      -1.59735500       0.02277100
H       -2.86718600      -0.94637400      -0.84342100
H       -1.24503300      -0.55633200      -1.39099700
H       -2.21535700       1.40852200      -0.06455000
H        0.28284000       1.14058800      -3.08129100
H       -1.06449400      -0.38411100       2.13068500
H       -1.45972200       1.41961900       2.22811100
H        2.15144200      -1.42631500       1.86684700
H        0.60437100       1.20937400      -2.41325000
H        1.31351300      -1.88787100      -1.11750500
H        3.25432700       0.42999700      -0.37657000
H        0.57318100       0.96731700       0.29918400
