12
smiles: [C:3]([O:4][H:11])(=[C:5]=[C:6]([H:7])[H:12])[H:10].[O:1]=[C:2]([H:8])[H:9]
O       -1.35139600      -1.38497100      -1.69506800
C       -1.64800400      -0.35063200      -1.17352600
C        0.57271000       1.24254200       0.59103100
O       -0.24170600       1.60139900       1.62566100
C        1.03073200       0.04597100       0.34863100
C        1.48755300      -1.14652900       0.09518500
H        0.94107600      -1.83780000      -0.53915700
H       -1.99717200      -0.30294600      -0.12410500
H       -1.59018400       0.61475900      -1.71201900
H        0.81796900       2.08436000      -0.04436200
H       -0.43262200       0.82401000       2.15675100
H        2.43152200      -1.49278100       0.50496900
