12
Extracted from Q-Chem output
O      -0.837951     -1.337996     -0.855443
C      -1.112614     -0.092574     -0.762051
C       0.128773      1.017672      0.338828
O      -0.463553      1.299424      1.549256
C       1.149838      0.110781      0.243359
C       1.523232     -1.053580     -0.043609
H       0.401707     -1.474457     -0.519583
H      -1.918430      0.198884     -0.080117
H      -1.035753      0.514512     -1.674478
H       0.142943      1.904940     -0.283312
H      -0.401249      0.524895      2.115180
H       2.416821     -1.650406     -0.024100
