11
Extracted from Q-Chem output
C      -2.008927      0.146437     -0.038036
C      -0.637439     -0.162929     -0.032335
O      -0.323736     -0.907625     -1.029730
O       0.272744      0.303448      0.800808
C       1.607163      0.163002      0.464662
N       2.448814      0.406860      1.349313
H      -2.380103      1.042682      0.441637
H      -1.472363     -0.488936     -1.292388
H      -2.631476     -0.735513      0.091929
H       1.758236     -0.146629     -0.568092
H       3.388206      0.295271      0.982200
