12
Extracted from Q-Chem output
N       1.598521     -0.404809      0.397282
C       0.603547      0.073381     -0.464769
C      -0.759343     -0.743060     -0.827325
O      -1.471265      0.506336     -0.864795
C      -0.503339      0.905150      0.028417
N      -0.827447      0.588447      1.293504
H       2.522753     -0.073138      0.179470
H       1.370278     -0.259563      1.370694
H       0.984919      0.347886     -1.447617
H      -0.785121     -1.216937     -1.819546
H      -0.964814     -0.580147      0.853734
H      -1.803365      0.819727      1.471173
