12
Extracted from Q-Chem output
O      -0.907977      2.450290     -0.379102
C      -0.451020      1.407512     -0.025521
C      -1.177201      0.100943      0.203515
C      -0.421549     -0.951960     -0.514812
N       0.877262     -0.964944     -0.188860
C       1.472513      0.075145      0.366327
O       0.893659      1.296021      0.202581
H      -1.161436     -0.085041      1.295512
H      -2.205796      0.197668     -0.129653
H      -0.840941     -1.778889     -1.059004
H       1.435088     -1.791386     -0.353545
H       2.511079      0.074270      0.640287
