16
smiles: [C:5](=[C:6]([H:15])[H:16])([H:13])[H:14].[O:1]([C:2]([C:3](=[C:4]([H:11])[H:12])[H:10])([H:8])[H:9])[H:7]
O       -1.81071600      -0.46522500       0.62841000
C       -1.24584900      -0.88862000      -0.59130800
C        0.04656800      -1.59926200      -0.35164100
C        0.59574500      -1.79966200       0.83416800
C        1.47881500       1.89291100      -0.35937800
C        0.42519900       2.18688000       0.38283900
H       -2.63082200      -0.00682400       0.44515000
H       -1.05745800      -0.03394300      -1.25728800
H       -1.92567200      -1.56624900      -1.12794700
H        0.53634000      -1.96282100      -1.25119000
H        1.53801700      -2.32457300       0.92958000
H        0.11973200      -1.44300000       1.73870700
H        1.83691000       0.87477100      -0.46149300
H        2.02749400       2.65822100      -0.89650900
H       -0.12363500       1.42154900       0.91977900
H        0.06698100       3.20499800       0.48473700
