16
Extracted from Q-Chem output
O      -1.670181     -0.238990      0.949174
C      -1.234089     -0.271397     -0.324146
C      -0.075274     -1.100003     -0.602179
C       0.887089     -1.436838      0.357455
C       1.341001      1.241951      0.373646
C       0.254160      1.809886     -0.171966
H      -2.599235     -0.004077      0.982596
H      -1.936412     -0.026385     -1.114021
H      -0.995630     -1.830518     -0.679062
H       0.255440     -1.000665     -1.633699
H       1.784766     -1.947884      0.040895
H       0.622066     -1.482574      1.404321
H       1.441056      1.119221      1.443784
H       2.212111      0.993276     -0.217447
H      -0.550989      2.189714      0.444472
H       0.211176      2.045653     -1.229288
