16
smiles: [C:1](/[C:2](=[C:3](\[O:4][H:13])[H:12])[H:11])([H:7])([H:8])[H:9].[C:5](=[O:6])([H:14])[H:15].[H:10][H:16]
C       -1.94413500      -0.62880600       0.04665700
C       -1.29864500      -1.79741000       0.72614900
C       -0.02003300      -2.14728000       0.65368800
O        0.96773800      -1.52884300      -0.04217200
C        1.95042200       1.43493100      -0.25558700
O        1.03083000       1.14494500      -0.96276900
H       -2.33416100       0.08694900       0.77463200
H       -1.26351300      -0.07733200      -0.60718900
H       -2.78427300      -0.94972900      -0.57347500
H        1.01324100       4.15007000      -2.38153700
H       -1.93173600      -2.42409000       1.34259000
H        0.36479200      -3.01342100       1.17745000
H        0.61024900      -0.76211200      -0.49690600
H        2.37145400       0.72187400       0.47900900
H        2.43002500       2.43183800      -0.29699000
H        0.84381800       3.43827300      -2.24329100
