16
Extracted from Q-Chem output
C      -1.839706     -0.364363     -0.742350
C      -0.788284     -0.004614      0.278460
C       0.375468     -0.734452      0.414130
O       0.714051     -1.727707     -0.480271
C       1.952287      0.685998      0.228850
O       1.656502      1.679050     -0.481803
H      -2.635748      0.378129     -0.767813
H      -1.433770     -0.425929     -1.754386
H      -2.278921     -1.335943     -0.499196
H      -0.479385      1.388171     -0.434235
H      -1.130458      0.497090      1.175897
H       0.755030     -0.955993      1.400987
H       0.308956     -1.550165     -1.331852
H       2.489951     -0.152421     -0.223472
H       2.097631      0.832137      1.308609
H       0.274353      1.752700     -0.594045
