15
Extracted from Q-Chem output
C      -1.296045      0.555835      0.306203
O      -0.882420      1.019753     -0.982091
C       0.439545      0.989872     -1.140888
C       0.184856     -1.324703     -0.492994
C      -0.247182     -0.470398      0.718110
C       1.122492      0.156626      0.857256
O       1.267065      1.141303     -0.154845
H      -2.298061      0.145683      0.182864
H      -1.334486      1.402381      0.996236
H       0.766857      1.335669     -2.112887
H       0.438312     -2.334198     -0.166594
H      -0.469861     -1.380743     -1.363516
H      -0.565862     -1.022973      1.602149
H       1.531091      0.540545      1.791853
H       1.416636     -0.848600     -0.110043
