16
Extracted from Q-Chem output
C      -1.525582      1.006289     -0.052474
C      -1.401117     -0.443710      0.399178
C       0.040583     -0.879239      0.632185
C       0.856612     -1.027840     -0.630488
C       2.066012      0.324065     -0.636025
O       2.235130     -1.017541     -0.297195
H      -1.079487      1.157765     -1.038446
H      -1.030690      1.683131      0.649645
H      -2.571103      1.310110     -0.123500
H      -1.850370     -1.101741     -0.349462
H      -1.967289     -0.586314      1.323372
H       0.056345     -1.911347      1.007786
H       0.530709     -0.274319      1.407423
H       1.006617      0.247049     -1.234417
H       2.728218      0.642460     -1.439055
H       1.963521      1.003816      0.205891
