13
smiles: [C:1](=[C:2]=[O:3])([H:8])[H:9].[C:4](\[O:5][H:12])(=[C:6](\[O:7][H:10])[H:13])[H:11]
C       -1.99209600       0.14836700      -0.50604100
C       -1.54241100      -0.71189900      -1.38204200
O       -1.14460200      -1.47190300      -2.15593800
C        1.80871700       0.63111100       0.25984600
O        1.63572000       1.74464200       1.01168800
C        1.16346400      -0.50972000       0.45730500
O        0.29731200      -0.61291700       1.52628900
H       -1.36191600       0.96883000      -0.20098900
H       -2.98530200       0.02437700      -0.10416500
H       -0.43997700      -1.17784500       1.29409500
H        2.54364400       0.74659900      -0.52374800
H        0.96937600       1.54774500       1.67896900
H        1.33846800      -1.38805400      -0.14992600
