17
Extracted from Q-Chem output
C      -1.774235      0.502564      0.233700
C      -0.807713     -0.641041      0.197031
C      -0.139297     -0.923560     -1.101202
C       0.937308      0.253287     -1.043715
C       1.336840      0.717796      0.352154
C       0.858149      0.233474      1.514116
C      -0.008965     -0.941895      1.256247
H      -1.582492      1.255762     -0.535852
H      -2.780451      0.112563      0.047087
H      -1.785363      0.978726      1.214421
H      -0.746882     -0.840300     -2.005526
H       0.379463     -1.882786     -1.099885
H       0.512310      1.114843     -1.568845
H       1.834903     -0.020932     -1.607559
H       2.100055      1.493278      0.372515
H       1.237816      0.577546      2.471626
H       0.555709     -1.873178      1.195348
