17
Extracted from Q-Chem output
C      -1.827487      0.540495      0.249670
C      -1.263106     -0.855901      0.324997
C       0.260027     -0.986577     -0.726594
C       1.021678      0.274594     -1.123749
C       1.398736      0.897148      0.195263
C       0.949345      0.191241      1.224400
C       0.145963     -0.999124      0.797662
H      -1.130783      1.380489      0.146141
H      -2.598327      0.614229     -0.518278
H      -2.338822      0.667038      1.209753
H      -0.898001     -1.067801     -1.030499
H       0.567038     -1.933759     -1.160661
H       0.417962      0.952396     -1.735922
H       1.899969      0.017672     -1.721362
H       1.941365      1.832338      0.263798
H       1.095701      0.448705      2.265734
H       0.374235     -1.935412      1.300886
