19
smiles: [C:1](=[C:2]([H:11])[H:12])([H:9])[H:10].[C:3]1([C:4]([H:13])([H:14])[H:15])=[C:5]([H:17])[C@:6]1([O:7][H:19])[H:18].[H:8][H:16]
C        2.26112300       0.42812100       0.18763200
C        2.56915700      -0.31780000      -0.85933600
C       -1.58774400      -0.20387800       0.06647100
C       -1.09540800      -1.59301100       0.07890000
C       -2.07602700       0.83216000       0.67210300
C       -1.75280500       1.02282900      -0.74709000
O       -0.62400700       1.81624000      -1.05821300
H        0.27553200      -0.09200400       2.61716200
H        1.39419200       1.07906600       0.18687800
H        2.86123300       0.41785100       1.09042100
H        3.43598000      -0.96888200      -0.85840100
H        1.96894900      -0.30777300      -1.76205300
H       -0.04976400      -1.61726100      -0.23486100
H       -1.17162100      -2.03757100       1.07122700
H       -1.66176000      -2.20511200      -0.62633900
H        0.30447800      -0.42904200       3.28047200
H       -2.42729200       1.30029300       1.57578700
H       -2.53738600       1.11423000      -1.50094400
H       -0.38117000       1.65176000      -1.97110800
