19
Extracted from Q-Chem output
C       2.076790      0.494595      0.704484
C       1.520064     -0.305158     -0.242210
C      -0.798370     -0.456543     -0.069248
C      -0.939733     -1.809943     -0.669389
C      -1.220116      0.234835      1.000616
C      -1.360492      0.895335     -0.304673
O      -0.548092      2.013913     -0.587843
H       0.841453      0.958276      1.685921
H       2.282892      1.537303      0.495127
H       2.581541      0.063533      1.561537
H       1.567597     -1.381079     -0.138295
H       1.307223      0.078096     -1.230321
H      -0.315753     -1.934585     -1.555686
H      -0.679989     -2.589992      0.048122
H      -1.979132     -1.967027     -0.972751
H       0.008438      0.898593      1.723142
H      -1.813808      0.091154      1.890126
H      -2.354019      0.993495     -0.753099
H      -0.462571      2.082404     -1.540489
