19
smiles: [C:1]([H:8])([H:9])([H:10])[H:19].[O:2]=[C:3]([C:4]([C:5]([C:6](=[C:7]([H:17])[H:18])[H:16])([H:14])[H:15])([H:12])[H:13])[H:11]
C        2.15365200      -1.50750500      -1.06436300
O        1.71567300       0.70760800       1.87693300
C        0.68079300       1.27035600       1.65130900
C        0.11232200       1.52149100       0.28158500
C       -1.34881600       1.06783200       0.16899000
C       -1.49852400      -0.42141800       0.25286400
C       -2.04151700      -1.17869300      -0.68659900
H        2.29225200      -1.02641300      -0.09732000
H        2.53447600      -0.85802300      -1.85107500
H        2.69329900      -2.45312600      -1.08047700
H        0.05981300       1.65669000       2.49103400
H        0.16362100       2.60382100       0.11513600
H        0.74427600       1.03142500      -0.46012700
H       -1.76869400       1.42936700      -0.77167800
H       -1.92835500       1.53903300       0.97175000
H       -1.11561200      -0.89437500       1.15537600
H       -2.11949600      -2.25298200      -0.57362500
H       -2.43069400      -0.75084900      -1.60503100
H        1.09306600      -1.69212600      -1.22863200
