12
Extracted from Q-Chem output
C       0.092335      1.330785      0.406742
C      -0.015523     -0.118101      0.013209
C      -1.127016     -0.856035      0.111717
O      -2.329264     -0.456997      0.569699
C       1.163319     -0.736594     -0.506717
C       2.174772     -1.217104     -0.939014
H       0.865605      1.466983      1.164783
H       0.363693      1.944436     -0.454262
H      -0.836771      1.734611      0.815062
H      -2.293918      0.467724      0.829288
H      -1.140106     -1.895436     -0.190254
H       3.065652     -1.651912     -1.325293
