15
Extracted from Q-Chem output
C      -1.336371      0.878410      0.256597
C      -0.502931     -0.377279      0.049491
N       0.162217     -0.317249     -1.266388
C       1.426021     -0.084563     -1.438075
C       0.515992     -0.607963      1.163278
O       1.396187      0.465468      1.347917
H      -1.918790      0.798661      1.175437
H      -0.682956      1.746932      0.339243
H      -2.031947      1.037162     -0.570742
H      -1.159214     -1.254503      0.019480
H      -0.484426     -0.429349     -2.043983
H       1.621454     -0.077235     -2.521828
H       1.058561     -1.538873      0.952366
H      -0.032765     -0.749001      2.097798
H       1.892502      0.509200      0.509535
