15
Extracted from Q-Chem output
C       1.758623     -0.023641     -0.006216
C       0.850841      0.646349     -1.016135
N      -0.548582      0.700240     -0.876456
C      -1.536642     -1.025843      0.570527
C      -1.173351      0.465358      0.378514
O      -0.440736      1.069180      1.283940
H       2.782017      0.003997     -0.385107
H       1.489120     -1.067085      0.154911
H       1.706651      0.488442      0.953973
H       0.952904      0.212253     -2.026983
H       1.178235      1.682961     -1.202103
H      -0.633985     -1.632551      0.610996
H      -2.195005     -1.393566     -0.217501
H      -2.049097     -1.087587      1.530920
H      -2.148924      0.996184      0.255527
