14
Extracted from Q-Chem output
N       1.498808     -0.930803      0.104507
C       0.659642     -0.279804     -0.549767
O       0.901090     -0.059716     -1.934897
C       1.636676     -0.851300     -2.663984
C      -1.339169     -0.047452      1.063043
C      -0.596760      1.239594      1.102433
C      -0.586392      0.406808     -0.157837
H       1.239197     -1.033468      1.079680
H       1.950935     -1.689314     -1.998343
H      -0.939427     -0.892045      1.610090
H      -2.418636     -0.023007      1.006502
H       0.327762      1.281480      1.663767
H      -1.154706      2.165223      1.076268
H      -1.162824      0.773524     -0.995545
