14
Extracted from Q-Chem output
C      -0.689547     -1.141425      0.111885
C      -0.206856      0.277649      0.008226
C      -1.012214      1.338837     -0.099778
O      -2.353135      1.347093     -0.146452
C       1.250312      0.589152      0.023000
O       1.695529      1.721330     -0.004735
N       2.084580     -0.488859      0.086663
H      -0.288102     -1.633938      1.001052
H      -1.776179     -1.213454      0.195012
H      -0.408903     -1.736869     -0.762042
H      -2.695342      0.449787     -0.101271
H      -0.589247      2.333523     -0.159155
H       1.761964     -1.431081     -0.017242
H       3.069955     -0.306091      0.025405
