17
Extracted from Q-Chem output
C       1.615375     -0.983451     -0.196654
C       0.355855     -0.185468      0.005164
C      -1.055611     -0.802216     -0.082781
C      -1.507324      0.691617     -0.245051
C      -1.183927      1.258253      1.080360
C       0.171787      0.631808      1.288041
C      -0.148206      0.860071     -1.011355
H       1.740156     -1.723790      0.597431
H       1.604131     -1.514415     -1.150829
H       2.494157     -0.333888     -0.185006
H      -1.432138     -1.362606      0.775140
H      -1.230976     -1.356369     -1.006194
H      -2.455804      0.952314     -0.706684
H       0.320906      1.845779     -1.018404
H       0.159577      0.044294      2.213809
H       0.916000      1.421220      1.446505
H      -0.233533      0.471688     -2.027503
