17
Extracted from Q-Chem output
C       1.597856     -1.058667     -0.218302
C       0.354537     -0.253276      0.024718
C      -1.050103     -0.890806      0.001496
C      -1.555998      0.517317     -0.321755
C      -0.888972      1.552371      0.554810
C       0.231868      0.698527      1.214637
C      -0.210846      0.845551     -0.935120
H       1.737650     -1.791756      0.579840
H       1.544810     -1.600611     -1.165378
H       2.482850     -0.418601     -0.243259
H      -1.400240     -1.375056      0.916764
H      -1.178115     -1.565489     -0.846778
H      -2.505744      0.745357     -0.789070
H      -0.059901      1.989538     -0.443679
H      -0.088832      0.237512      2.152208
H       1.129361      1.291781      1.398481
H      -0.076906      1.045616     -1.993247
