15
Extracted from Q-Chem output
C       2.738437     -0.365852     -1.810285
C       1.792005     -0.457333     -0.923680
C       0.849528     -0.535079     -0.030092
C       0.007333      0.630132      0.418140
C      -1.439286      0.442695      0.037128
C      -2.393136     -0.206192      0.931050
O      -2.392040      1.201952      0.758574
H       3.759760     -0.149269     -1.518852
H       0.639083     -1.505115      0.413720
H       2.532779     -0.506895     -2.865118
H       0.384879      1.553326     -0.025354
H       0.066701      0.740745      1.504789
H      -1.631706      0.388058     -1.033230
H      -3.256182     -0.722893      0.521780
H      -2.056664     -0.553451      1.904908
