15
Extracted from Q-Chem output
C       2.996971     -0.579185     -1.450955
C       1.731351     -0.542813     -0.899665
C       0.492304     -0.224929     -0.763534
C      -0.213951      0.711464      0.128562
C      -1.713170      0.551916      0.119710
C      -2.413642     -0.144183      1.190654
O      -2.424150      1.273981      1.109653
H       3.706444     -1.336606     -1.147295
H       1.863904     -1.657093     -1.242072
H       3.279439      0.087073     -2.259762
H       0.035357      1.720182     -0.233993
H       0.158096      0.666878      1.157307
H      -2.170111      0.564010     -0.867833
H      -3.365960     -0.627251      0.992997
H      -1.843076     -0.556530      2.019080
