14
Extracted from Q-Chem output
C      -1.255951     -0.370750      0.574239
C      -0.312252     -0.792516     -1.049115
C       0.075965      0.416245     -0.383888
N      -0.340923      1.678918     -0.794933
C       1.343073      0.182737      0.315571
C       1.614704     -1.101970      0.089202
O       0.666020     -1.702262     -0.677599
H      -2.226865     -0.180856      0.132295
H      -1.169235     -1.394385      0.926102
H      -1.082093      0.304167      1.414381
H      -0.474020      2.352179     -0.056606
H      -1.127552      1.643298     -1.425653
H       1.930097      0.890989      0.876826
H       2.436731     -1.727668      0.404142
