14
Extracted from Q-Chem output
O       2.279230     -1.067220     -0.208681
C       1.946890      0.107323      0.391120
C       1.108223      0.068757      1.639496
C       0.366385      0.597725      0.699601
C      -0.998154      0.775785      0.175852
C      -1.756847     -0.435297     -0.232342
N      -2.074845      0.254115      1.004106
H       1.904131     -1.775677      0.328021
H       2.719382      0.865396      0.297359
H       1.129873      0.796201     -0.383587
H      -1.213484      1.722259     -0.306735
H      -1.235326     -1.384413     -0.185192
H      -2.502205     -0.347669     -1.013531
H      -1.681839     -0.232030      1.803183
