16
smiles: [C:1]([C:2](=[C:6]=[O:7])[H:11])([H:8])([H:9])[H:10].[C:3](=[N:4][C:5]([H:14])([H:15])[H:16])([H:12])[H:13]
C        3.14648100       0.52214600       0.60248700
C        1.67968500       0.28279300       0.35598000
C       -1.65377900      -1.13654500      -1.54740100
N       -1.42109200      -0.23161000      -0.70738000
C       -2.54794100       0.38386500      -0.04530300
C        0.85074200      -0.11478100       1.28597100
O        0.11707700      -0.46694100       2.11165800
H        3.41126500       0.31275600       1.63872900
H        3.41410700       1.55972500       0.39330300
H        3.75994500      -0.11893000      -0.03343700
H        1.24475900       0.43411500      -0.62370700
H       -2.66750200      -1.47693800      -1.79889800
H       -0.82173800      -1.61663500      -2.05949000
H       -2.53026900       1.45785500      -0.24045700
H       -3.51796000      -0.02324900      -0.36197200
H       -2.43901600       0.25283900       1.03305900
