12
smiles: [C:1]([N:2]([H:10])[H:11])([H:7])([H:8])[H:9].[C:3](#[N:4])[C:5](=[O:6])[H:12]
C        1.52867300      -0.53425500       0.24742700
N        1.44271800       0.43402500      -0.83687700
C       -1.96540300      -0.09963000      -0.58296300
N       -2.09343700      -0.64709200      -1.58278200
C       -1.82338900       0.56806100       0.72421600
O       -1.23359800       1.59721200       0.85129900
H        0.56784600      -0.95452800       0.57416500
H        1.99989100      -0.06622900       1.11335600
H        2.17074900      -1.36234600      -0.05730700
H        0.86406100       1.21927000      -0.57296000
H        1.02313100       0.01925600      -1.65729800
H       -2.30529700       0.03680900       1.55934900
