15
Extracted from Q-Chem output
C      -1.144841      0.012838      0.992548
C      -0.350298      0.074876     -0.265782
C      -1.098543      0.095249     -1.559869
N       0.953042      0.101597     -0.311596
C       1.963691     -0.065592      0.647908
O       1.579760     -0.125389      2.001988
H      -1.927350     -0.745597      0.892568
H      -1.650751      0.970247      1.153875
H      -0.508232     -0.190659      1.849287
H       2.069683     -1.053946      1.337034
H      -0.441281      0.210502     -2.423601
H      -1.821792      0.914774     -1.569706
H      -1.667446     -0.831117     -1.686671
H       1.342130      0.176162     -1.242949
H       2.813982      0.571168      0.390264
