12
Extracted from Q-Chem output
C      -1.044627     -0.617976      1.078969
C      -0.144815      0.347890      0.347908
O      -0.108750      1.518685      1.009766
C       1.137994     -0.216862     -0.030240
C       2.201576     -0.709724     -0.265381
C      -0.546164      1.030301     -1.436955
N      -1.433702      0.273784     -1.272662
H      -1.145456     -1.548751      0.530158
H      -0.569012     -0.807337      2.044286
H      -2.021769     -0.169458      1.234839
H       0.499115      2.120945      0.565862
H       3.148079     -1.142455     -0.491540
