13
Extracted from Q-Chem output
C      -1.560276      0.353696     -0.044317
C      -0.448710     -0.001859     -0.780016
O      -0.238016     -1.082499     -1.410860
C       0.924219      0.433741     -0.299269
O       1.105283      1.478248      0.602185
C       1.049551     -0.962096      0.337572
O       0.259349     -1.229743      1.279476
H      -1.638685      1.365057      0.342250
H      -2.490454     -0.173361     -0.220930
H      -0.621365     -0.583101      1.067804
H       1.621971      0.548944     -1.123224
H       0.328780      1.550591      1.164532
H       1.837921     -1.678573      0.121992
