14
Extracted from Q-Chem output
O       1.332894      0.487298      1.389507
C       0.773647     -0.031209      0.236291
C       0.256954      1.297816     -1.330770
C      -0.583565      0.776811     -0.321644
C      -1.264656     -0.584005     -0.470135
C      -0.186046     -1.214608      0.425657
H       2.161319      0.921834      1.181608
H       0.741107      2.192498     -0.892422
H       1.512432     -0.225581     -0.542452
H      -0.933632      1.369236      0.526719
H      -2.286118     -0.652278     -0.100713
H      -1.218940     -0.929064     -1.502183
H      -0.494203     -1.242011      1.471098
H       0.216266     -2.186931      0.142516
