11
Extracted from Q-Chem output
N       1.661507      0.141105     -0.915310
C       0.624784     -0.138927     -0.029904
C       0.013604      0.824713      0.777709
N      -1.212724      0.771768      1.213393
C      -1.929122      0.141814      0.223198
N      -1.426111     -0.940173     -0.349553
N      -0.207639     -1.271015     -0.328596
H       2.171275      0.978794     -0.678536
H       2.265145     -0.645543     -1.099247
H       0.996837     -0.290891      1.157699
H      -2.954017      0.414385      0.016520
