9
Extracted from Q-Chem output
N      -0.697030      1.109320     -0.007333
C       0.553313      0.842326      0.052089
C       0.977690     -0.534178      0.050084
N      -0.017477     -1.354825     -0.102222
C      -1.192866     -1.351400     -0.380797
H      -0.876531      2.105225     -0.072323
H       1.332855      1.605299      0.080038
H       1.996059     -0.880969      0.109553
H      -2.034000     -1.554792      0.271616
