15
smiles: [O:1]([C@@:2]1([H:9])[C:3]([H:10])([H:11])[C:4]2=[C:6]([H:14])[C@@:7]12[H:15])[H:8].[O:5]([H:12])[H:13]
O        2.68678600       0.23498600      -0.13134600
C        1.47748600       0.35333400       0.55277400
C        0.39060000       1.33519600      -0.10550500
C       -0.36119400       0.08898500      -0.43716300
O       -3.31163400      -0.59561700       0.59850200
C       -0.05341700      -1.08326000      -0.89737000
C        0.44895900      -0.80395100       0.48457300
H        2.52655200      -0.22638300      -0.95936700
H        1.72727100       0.65471500       1.57114200
H       -0.07630600       1.93283300       0.67599600
H        0.68973200       1.97401300      -0.93854300
H       -3.87906000      -0.02519800       0.07845000
H       -2.52767500      -0.73003200       0.06454300
H        0.11732600      -1.65020600      -1.80042500
H        0.05584900      -1.27501400       1.37803000
