15
Extracted from Q-Chem output
O       2.361337      0.272359     -0.325772
C       1.254755      0.352094      0.522782
C       0.051666      1.261094      0.035900
C      -0.701667     -0.028230     -0.064155
O      -2.253745     -0.212816      0.347760
C      -0.328469     -1.211125     -0.755759
C       0.315004     -0.878257      0.580908
H       2.120417     -0.296570     -1.063640
H       1.624927      0.674314      1.496193
H      -0.273723      1.919853      0.841441
H       0.194489      1.827548     -0.885798
H      -2.788342      0.285518     -0.288125
H      -2.093311     -1.140065     -0.085364
H       0.217410     -1.171071     -1.698060
H       0.231104     -1.511337      1.455884
