9
Extracted from Q-Chem output
O      -1.943344      0.828722      0.090706
C      -1.231012     -0.171147      0.779878
C       0.174155     -0.264396      0.371437
C       1.324754     -0.305639      0.042989
C       3.714639     -0.407974     -0.638745
N       2.588494     -0.360505     -0.319421
H      -1.504269      1.671099      0.226700
H      -1.731747     -1.115381      0.560881
H      -1.271291     -0.024111      1.865978
