9
Extracted from Q-Chem output
O      -1.804164      0.973843      0.097098
C      -1.176482     -0.138899      0.687354
C       0.208719     -0.329505      0.255442
C       1.350259     -0.466446     -0.099963
C       2.709397     -0.728587     -0.665940
N       2.993765     -0.052839      0.278643
H      -1.277445      1.756423      0.272837
H      -1.763414     -1.014019      0.402381
H      -1.191226     -0.081769      1.783263
