11
Extracted from Q-Chem output
C      -1.691551     -0.232410      0.088390
C      -0.220624     -0.035807      0.210779
N       0.422745     -0.103915      1.408910
N       1.685144      0.094142      1.234973
N       1.877556      0.292782     -0.063926
C       0.717894      0.222539     -0.749797
H      -2.025864     -0.040375     -0.931156
H      -1.968992     -1.253977      0.352725
H      -2.226630      0.440315      0.759138
H       2.805820      0.470278     -0.404340
H       0.655129      0.356309     -1.816262
