10
Extracted from Q-Chem output
N       1.917921     -0.045040      0.082647
C       0.576155     -0.029959     -0.014086
N      -0.240966     -0.939840      0.402216
C      -1.531595     -0.496332      0.107427
N      -2.117268      0.668225      0.689195
N      -1.235300      1.010213     -0.195321
N      -0.005003      1.185111     -0.494947
H       2.371943     -0.897994      0.346933
H       2.440511      0.670410     -0.385780
H      -2.154306     -1.109131     -0.540163
