19
Extracted from Q-Chem output
C       1.994805      0.286141     -0.667780
C       1.064501     -0.138672      0.462702
C      -0.372323     -0.340958      0.049719
C      -0.684067     -1.315571     -1.063201
C      -1.416262     -0.225742      1.110738
C      -1.554969      1.105212      0.413986
O      -0.858695      2.051789      1.131650
H       1.631006      1.197993     -1.148031
H       2.089931     -0.482345     -1.436934
H       2.996267      0.489869     -0.285946
H       1.086856      0.614379      1.253385
H       1.426615     -1.069011      0.914976
H      -0.024560     -1.195029     -1.923505
H      -0.584338     -2.340748     -0.693873
H      -1.713648     -1.185831     -1.403125
H      -1.039550     -0.149980      2.127254
H      -2.265326     -0.897668      1.031117
H      -0.826558      0.758856     -0.585352
H      -0.940320      2.878593      0.653420
