16
Extracted from Q-Chem output
C       1.899558     -0.236259      0.096827
C       0.593948      0.514489      0.089749
C      -0.521829      0.021152     -0.755972
O      -0.461458     -1.367617     -1.030680
C      -1.913930      0.256076     -0.098451
C      -1.749314      0.141294      1.380369
N      -0.651792      0.250372      1.870951
H       2.381740     -0.258474     -0.891459
H       2.619098      0.232405      0.771172
H       1.770436     -1.272541      0.418521
H       0.703455      1.598258      0.050131
H       0.346780      0.320602      1.998297
H      -0.557190      0.589832     -1.698530
H       0.378533     -1.567685     -1.447680
H      -2.642056     -0.445015     -0.504510
H      -2.280465      1.268010     -0.292695
