15
smiles: [C:1]1([H:7])([H:8])[C:2]([H:10])=[C:3]1[N:4]1[C:5]([H:12])([H:13])[C:6]1([H:14])[H:15].[H:9][H:11]
C       -1.69066000       1.54368300      -1.17404900
C       -1.84037100       0.07059800      -1.49731600
C       -0.69120600       0.45105900      -1.05385200
N        0.62806600       0.21177800      -0.77186000
C        0.99817700      -0.98500200      -0.04707600
C        1.10232800       0.35275600       0.59116100
H       -1.59923300       2.26791000      -1.98509400
H       -2.15568700       1.95166600      -0.27545700
H        1.59954500      -1.99207200       3.49164000
H       -2.49590300      -0.67705300      -1.90323900
H        1.57982200      -1.62030500       2.84681400
H        0.19291500      -1.63453800       0.27880900
H        1.89091600      -1.48496100      -0.40217400
H        2.06876400       0.82944100       0.69947500
H        0.36941500       0.59948200       1.35151400
