12
Extracted from Q-Chem output
C       1.078928      0.652966     -0.573914
C       1.414996     -0.449005      0.078417
C       0.129641     -1.314095      0.500043
C      -0.717490     -0.331100      1.068202
C      -0.385931      1.026101     -0.760496
O      -1.066161      0.765868      0.467788
H       1.808238      1.295218     -1.055268
H       0.339507     -2.136044      1.175277
H      -0.204565     -1.682519     -0.471746
H      -0.986419     -0.321922      2.121013
H      -0.826382      0.398850     -1.545248
H      -0.582556      2.071588     -0.991157
