16
Extracted from Q-Chem output
C       2.132889      0.026805     -0.241807
C      -0.360222     -0.009044      0.087669
C       0.756945      0.155045     -0.888071
C      -1.823457      0.015227     -0.034778
C      -1.149521     -1.216668      0.473989
C      -1.144834      1.003526      0.855600
H       2.269418      0.782330      0.534671
H       2.929468      0.152208     -0.977705
H       2.252243     -0.953185      0.224609
H       0.664845      1.133062     -1.371391
H       0.647053     -0.594784     -1.678259
H      -2.458691      0.163798     -0.892085
H      -1.257278     -1.488090      1.523916
H      -1.094694     -2.062991     -0.204991
H      -1.086741      2.027168      0.496336
H      -1.253058      0.910043      1.935980
