17
Extracted from Q-Chem output
C       2.525213     -0.334296      0.564921
C       1.310455     -0.434653     -0.361106
C       0.092028     -0.488284      0.535317
C      -0.487512      0.867688      0.726120
N      -1.276970      0.339933     -0.389808
C      -2.650450      0.042772      0.045589
H       2.495807      0.580674      1.160922
H       2.562539     -1.180965      1.251949
H       3.446851     -0.325234     -0.018002
H       1.300102      0.419261     -1.050358
H       1.389841     -1.347360     -0.955294
H      -0.889850     -0.783147     -0.323429
H       0.117834      1.723934      0.430867
H      -1.056737      1.055217      1.634978
H      -3.162876     -0.518512     -0.736098
H      -3.164893      0.993807      0.190265
H      -2.680443     -0.525010      0.982035
