15
Extracted from Q-Chem output
C      -1.342832      0.645593     -1.264984
C      -0.528705     -0.261246     -0.386187
O       0.830762     -0.447091     -0.951517
C       0.007308      0.317319      0.933408
O      -0.278309     -0.383448      2.095189
C       1.449989      0.055830      0.429381
O       1.954106     -1.107105      0.789855
H      -1.492266      0.203299     -2.250359
H      -2.319523      0.811970     -0.806580
H      -0.849815      1.611484     -1.389460
H      -0.997985     -1.237832     -0.258162
H       1.338773     -1.333501     -0.377799
H      -0.247000      1.369450      1.072649
H       0.387180     -1.089267      2.136585
H       2.131157      0.894115      0.251557
