16
smiles: [C:1](=[N:2][C:3](=[O:4])[H:11])([H:8])[H:9].[C:5]([C:6]([O:7][H:16])([H:14])[H:15])([H:10])([H:12])[H:13]
C        1.88530100      -0.30274700      -0.90801800
N        1.57346300      -0.23912700       0.31014100
C        2.49758400       0.23629200       1.24527600
O        2.94937500       1.34643700       1.25128600
C       -1.84740400       0.86243400      -0.77292800
C       -2.15697900      -0.45039000      -0.07802100
O       -1.11668100      -1.40084900      -0.21299700
H        2.88042200      -0.04215200      -1.27930400
H        1.14080500      -0.62794800      -1.63171300
H       -0.97623700       1.34787600      -0.32427200
H        2.71705300      -0.50555100       2.03175900
H       -2.69043100       1.55188400      -0.69029000
H       -1.63767000       0.69484100      -1.83051700
H       -2.38536700      -0.27451500       0.98134900
H       -3.03730500      -0.91610100      -0.52439100
H       -0.31974700      -1.03727700       0.17727100
