17
smiles: [C:1]([C@@:2]([O:3][H:12])([C@@:4]1([H:13])[C:5]([H:14])([H:15])[C-:6]=[O+:7]1)[H:11])([H:8])([H:9])[H:10].[H:16][H:17]
C       -1.99448200      -0.72419700       0.43608800
C       -1.10673100       0.13810100      -0.44852800
O       -1.41959800       1.50969300      -0.32979800
C        0.36578200      -0.11952600      -0.18864500
C        1.40126000       0.86811400      -0.72327900
C        1.67003300       1.19344500       0.74212500
O        0.75986900       0.31859400       1.15080200
H       -3.04279200      -0.51476000       0.22491100
H       -1.81038700      -1.78624600       0.26334900
H       -1.80340500      -0.51606400       1.49167500
H       -1.28463800      -0.10654100      -1.50077500
H       -1.33709500       1.76597000       0.59319400
H        0.59848200      -1.17947900      -0.31057700
H        2.26305000       0.45190400      -1.24516100
H        1.00484900       1.71643600      -1.28084600
H        3.20702900      -1.36063300       0.91080600
H        3.21096300      -1.99739700       0.52492100
