17
Extracted from Q-Chem output
C      -2.125515     -0.570805      0.399599
C      -1.117091      0.221363     -0.419389
O      -1.179601      1.603071     -0.131868
C       0.290224     -0.311321     -0.237333
C       1.495320      0.470994     -0.764345
C       1.977238      0.399098      0.686053
O       0.786652     -0.101277      1.113633
H      -3.123111     -0.153812      0.263585
H      -2.141676     -1.619701      0.096744
H      -1.873639     -0.529599      1.462042
H      -1.357593      0.134877     -1.483904
H      -0.947091      1.724349      0.793371
H       0.344788     -1.383784     -0.463526
H       2.091506      0.031193     -1.557527
H       1.237626      1.502210     -1.006688
H       2.992117     -0.304686      0.971626
H       2.902959     -1.061673      0.455654
