10
Extracted from Q-Chem output
C       0.674059      0.986722     -0.161570
C       1.452865     -0.189982     -0.097567
N       0.795358     -1.349414      0.077803
N      -0.515822     -1.533424      0.247472
C      -1.229577     -0.441248      0.121511
C      -0.682755      0.839543     -0.096536
H       1.140542      1.957750     -0.270658
H       1.981212     -1.408045      0.184604
H      -2.301370     -0.575153      0.217735
H      -1.353751      1.686674     -0.182481
