19
Extracted from Q-Chem output
C      -2.762143      0.316093     -0.141187
C      -1.379995      0.659532      0.396201
C      -0.366715     -0.458921      0.176097
C       0.991079     -0.155900      0.741130
C       2.184393     -0.940070      0.311404
C       2.358466      0.341397     -0.460804
O       1.842270      0.170645     -1.725352
H      -2.729060      0.123334     -1.216184
H      -3.160566     -0.579780      0.341455
H      -3.471077      1.127699      0.030484
H      -1.447186      0.884151      1.466013
H      -1.013464      1.572883     -0.084214
H      -0.262242     -0.661685     -0.894565
H      -0.739267     -1.386609      0.626063
H       1.020330      0.213186      1.764615
H       1.965795     -1.802414     -0.312637
H       2.935422     -1.147475      1.065101
H       1.501651      0.994104      0.247964
H       1.940636      1.006853     -2.183376
