13
Extracted from Q-Chem output
O       2.642699     -1.030102     -0.428653
N       1.926816     -0.029301     -0.130872
C       0.646200      0.011345     -0.044096
C      -0.382994     -1.045331     -0.249674
C      -1.450148      0.036264      0.086615
C      -0.331366      1.102482      0.293790
H       2.421052      0.848747      0.063025
H      -0.416152     -1.452847     -1.261910
H      -0.313230     -1.881786      0.448425
H      -2.131321      0.263530     -0.731081
H      -2.034547     -0.172616      0.980589
H      -0.360388      1.940505     -0.405314
H      -0.258417      1.498666      1.308624
