16
Extracted from Q-Chem output
C      -0.505637      1.083404     -1.087652
C      -0.028858      0.178749      0.808268
C      -0.840932     -1.085913      0.681444
O      -0.557689     -1.901363      1.795613
N       1.300244      0.043317      0.698723
C       1.109564      0.201433     -0.911691
O       1.178192     -0.800736     -1.593381
H      -0.508402      2.112839     -0.723800
H      -1.480714      0.621447     -0.933242
H      -0.359418      1.099244     -2.167747
H      -0.462681      0.995633      1.382990
H      -1.906743     -0.860582      0.715007
H      -0.596688     -1.578327     -0.265001
H       0.363244     -2.169501      1.726363
H       1.804867      0.848281      1.050462
H       1.671145      1.135455     -1.039292
