14
Extracted from Q-Chem output
C      -1.315581     -1.241870     -0.208098
C      -1.160719      0.205737     -0.508978
C      -0.638602      1.125789      0.377319
O       0.031806      0.765558      1.388519
C       1.172993      0.061509     -1.082062
O       1.824845      0.336533     -1.967307
N       2.033306      0.387950      0.871733
H      -0.656247     -1.542778      0.603018
H      -2.348735     -1.433841      0.099486
H      -1.122591     -1.857535     -1.087328
H      -1.659877      0.595733     -1.392499
H      -0.676607      2.188821      0.108235
H       1.935051     -0.497091      1.365950
H       1.948281      1.099654      1.590109
