14
Extracted from Q-Chem output
O       3.242369      0.999256      0.000130
C       2.061401      0.783071      0.138673
C       1.072116      0.994959     -0.913625
C      -0.242050      0.739880     -0.807694
C      -0.570558     -0.976976      0.969661
C      -1.827286     -0.874604      0.180185
N      -0.918775      0.241460      0.284676
H       1.677478      0.421532      1.112440
H       1.444044      1.426006     -1.834707
H      -0.897596      0.996606     -1.635524
H      -0.603323     -0.940028      2.051994
H       0.235628     -1.567951      0.546030
H      -2.778418     -0.759424      0.685657
H      -1.860018     -1.407692     -0.764904
