14
Extracted from Q-Chem output
O       2.637372      1.903889      0.664675
C       1.668061      1.188213      0.522963
C       1.114342      0.813955     -0.758571
C      -0.129364      0.142598     -0.829475
C      -0.367758     -1.190742      0.062169
C      -1.649652     -0.558594      0.530237
N      -1.105780      0.719497      0.087348
H       1.170526      0.734501      1.403113
H       1.642855      1.150661     -1.644099
H      -0.503422     -0.059107     -1.839244
H       0.388986     -1.272588      0.832715
H      -0.393484     -2.078643     -0.564047
H      -1.884044     -0.620620      1.593650
H      -2.540554     -0.837022     -0.048006
