10
Extracted from Q-Chem output
C      -1.006892     -0.228056     -0.154398
C       0.394273     -0.713611      0.254353
O       1.200687     -1.248486     -0.746194
C       0.055447      0.707067      0.234674
N       0.520677      1.862749      0.362022
H      -1.245681     -0.286812     -1.210900
H      -0.191762      2.563762      0.158058
H      -1.826723     -0.438293      0.522407
H       0.452893     -1.215458      1.218442
H       2.049235     -0.800948     -0.721174
