16
Extracted from Q-Chem output
N       2.282578     -0.197633      1.222918
C       1.183199     -0.528155      0.449429
O       0.075313     -0.052235      1.054958
C       1.235324     -1.244621     -0.681142
C      -1.187174     -0.277364      0.457858
C      -1.493948      0.691044     -0.662170
O      -1.709282      1.969729     -0.099000
H       2.146593      0.631607      1.777318
H       3.160442     -0.212383      0.734006
H       2.191305     -1.585035     -1.050868
H       0.354965     -1.531331     -1.231375
H      -1.261475     -1.310017      0.105495
H      -1.911789     -0.131496      1.259591
H      -0.663719      0.704479     -1.375826
H      -2.391830      0.332570     -1.184032
H      -1.703637      2.622883     -0.798816
