9
Extracted from Q-Chem output
O       1.869858     -0.332122      0.180608
C       0.574654     -0.042643     -0.000858
C      -0.023644      1.147415     -0.154207
O      -1.369714      0.939837     -0.233235
C      -1.607951     -0.389124     -0.244521
N      -0.402334     -1.022540     -0.100105
H       1.981429     -1.282824      0.091987
H       0.341048      2.154500     -0.248111
H      -1.320723     -1.186442      0.737732
