11
Extracted from Q-Chem output
N      -1.904322     -0.259474      0.231854
C      -0.541248     -0.195655      0.028026
N       0.216069     -1.254888     -0.023445
N       1.481879     -0.779786     -0.142642
C       1.631560      0.555111     -0.274740
C       0.271663      0.984990     -0.096775
H      -2.440636      0.451839     -0.234610
H      -2.288240     -1.182263      0.106642
H       2.226262     -1.452097     -0.153501
H       1.246412      1.133160      0.798155
H      -0.063409      2.007228     -0.198298
