12
smiles: [C:1]([C:2](=[C:3]=[O:4])[H:10])([H:7])([H:8])[H:9].[C:5](#[C:6][H:12])[H:11]
C       -1.56791500       0.25512100       0.01205000
C       -0.77512000       1.53467200      -0.04673900
C        0.38562700       1.63404000      -0.64061300
O        1.41478500       1.72000200      -1.16742000
C        2.01995000      -1.37127300       0.13609400
C        1.48480700      -2.35849200       0.54370100
H       -2.53932200       0.37263200      -0.47232400
H       -1.74201600      -0.04919000       1.04594300
H       -1.04400800      -0.55836300      -0.48940000
H       -1.14746100       2.44368800       0.40797500
H        2.49551900      -0.49082200      -0.22777900
H        1.00970500      -3.23890400       0.90799500
