15
Extracted from Q-Chem output
C      -1.596567      0.329874     -0.031946
C      -0.460331     -0.654703     -0.308379
C       0.528928      0.457480     -0.485029
C      -0.566600      1.450117     -0.262558
N      -0.587336      2.696266     -0.406968
N       0.546157     -0.412932      0.706011
C       1.646854     -1.363890      0.675349
H      -1.518727      3.068293     -0.227764
H      -2.368013      0.344225     -0.803501
H      -2.045780      0.262914      0.958859
H      -0.511387     -1.597436     -0.835533
H       1.400441      0.541052     -1.119321
H       1.886130     -1.728084     -0.334516
H       1.387974     -2.219678      1.300217
H       2.537081     -0.891719      1.091830
