15
Extracted from Q-Chem output
C      -2.331224     -0.271009     -0.407003
N      -0.377675      0.823866      0.544275
C      -0.837388     -0.028498     -0.539117
C       0.781898      0.692246      1.021076
C       1.862905     -0.274979      0.573739
O       2.168342     -0.190545     -0.804643
H      -2.699087     -0.873046     -1.240086
H      -2.557438     -0.798814      0.521374
H      -2.872206      0.675946     -0.394332
H      -0.294966     -0.979256     -0.589797
H      -0.627598      0.492356     -1.477944
H       1.045872      1.357235      1.847273
H       1.534935     -1.303582      0.746904
H       2.758714     -0.114884      1.184387
H       2.425246      0.710977     -1.007910
