17
Extracted from Q-Chem output
C       1.927684      0.914430     -0.227074
O       1.202188     -0.067400     -0.935510
C       0.065523     -1.357336      0.264432
C      -0.376826     -0.812404      1.547736
C      -1.238972     -1.017694      0.317937
C      -1.597200      0.742961     -0.537494
O      -1.069669      0.781702     -1.670849
H       2.454389      0.433962      0.599497
H       1.271832      1.690617      0.178958
H       2.662649      1.387661     -0.883872
H       0.721226     -2.133717     -0.084248
H      -0.370952     -1.477841      2.409318
H      -0.167861      0.227922      1.801703
H      -2.103345     -1.621998      0.090532
H      -2.693660      0.686627     -0.458790
H      -1.128006      1.266075      0.315149
H       0.408329      0.358282     -1.387924
