18
Extracted from Q-Chem output
C       1.949504     -0.594005     -0.083384
C       0.738318     -0.008061      0.640295
C       0.606679      1.483129      0.346537
C      -0.498035     -0.810848      0.265654
C      -1.945574     -0.280969      0.425036
C      -1.322416     -0.486714     -0.888144
N      -1.356014     -0.402581     -2.138916
H       2.079441     -1.653418      0.147867
H       2.865436     -0.073039      0.203243
H       1.826936     -0.500312     -1.165257
H       0.886675     -0.129721      1.719720
H       1.521631      2.003700      0.634250
H      -0.215124      1.942316      0.898911
H       0.443364      1.660224     -0.719458
H      -0.404296     -1.873788      0.475240
H      -2.695658     -0.983021      0.769917
H      -2.089160      0.738576      0.764671
H      -2.263462     -0.053420     -2.447751
