12
Extracted from Q-Chem output
C      -1.030753      0.859049      0.048143
C      -0.987564     -0.491732      0.381616
O      -0.655749     -1.481678     -0.543916
C       0.509290     -1.371388      0.233638
C       1.473776     -0.484055     -0.140113
C       1.581231      0.760378     -0.329876
H       0.447480      1.185083      0.101782
H      -1.526244      1.517843      0.751370
H      -1.121218      1.124211     -0.998539
H      -1.417662     -0.855486      1.310204
H       0.646335     -2.143755      0.981025
H       2.190325      1.445044     -0.894188
