13
Extracted from Q-Chem output
O      -0.795623     -1.362698     -0.714331
C      -0.346491     -0.402886      0.263557
C       1.151555     -0.345543      0.371851
C       1.542006      0.921131      0.232544
C       0.366454      1.766941     -0.060487
C      -0.727383      1.006274     -0.094596
C      -1.602703     -2.280683     -0.297911
H      -0.795983     -0.697028      1.220416
H       1.764563     -1.209088      0.584360
H       2.554527      1.291262      0.318326
H       0.406947      2.836195     -0.217453
H      -1.744832      1.312673     -0.288740
H      -1.793009     -2.871612     -1.222722
