13
Extracted from Q-Chem output
O      -1.010400     -1.676947      0.174528
C      -0.305566     -0.564041      0.814178
C       1.154337     -0.497368      0.491617
C       1.408419      0.758335     -0.006638
C       0.217046      1.432266     -0.338121
C      -0.828597      0.534481     -0.093550
C      -0.948911     -1.081387     -0.996926
H      -0.566478     -0.528880      1.877244
H       1.890116     -1.194087      0.867934
H       2.403228      1.147289     -0.186353
H       0.144546      2.370545     -0.865629
H      -1.875833      0.821352     -0.035322
H      -1.681909     -1.521558     -1.702963
