11
Extracted from Q-Chem output
N       0.711801      0.686401     -0.062473
C       1.428976     -0.170376     -0.838552
O       0.980267     -1.111901     -1.442983
C      -1.272644     -0.663807      0.592552
C      -0.692015      0.592191      0.149162
O      -1.103691      0.429943      1.485932
H       1.196629      1.459696      0.359930
H       2.501304      0.094435     -0.858961
H      -0.613873     -1.508059      0.758519
H      -2.298578     -0.896814      0.327379
H      -1.292000      1.296949     -0.420267
