15
Extracted from Q-Chem output
C       2.528855      0.546351     -0.268767
O       1.140696      0.442432     -0.101409
C       0.689618     -0.894092      0.033156
C      -0.780174     -1.042149      0.235293
C      -2.812869      0.260239      0.441787
N      -1.382750      0.105940      0.258941
H       2.864132      0.022117     -1.172886
H       3.067326      0.131568      0.593036
H       2.774128      1.603735     -0.363501
H       1.184731     -1.380687      0.886481
H       0.957888     -1.480581     -0.857849
H      -3.243885     -0.731638      0.554307
H      -3.021857      0.855771      1.332852
H      -3.256585      0.756686     -0.423627
H      -0.849013      0.966839      0.145717
