19
smiles: [C:1]([C:2]([C:3](=[O:7])[H:13])([H:11])[H:12])([H:8])([H:9])[H:10].[C:4](=[C:5]([C:6]([H:16])([H:18])[H:19])[H:17])([H:14])[H:15]
C        2.91851000       0.04776000      -0.18273500
C        1.47610900      -0.45388700      -0.19941000
C        0.83079000      -0.32921200       1.15279100
C       -1.76262500       1.57536500      -0.68002000
C       -2.15795800       0.46908800      -0.06957100
C       -2.23715000      -0.88250600      -0.70449100
O        0.28656000      -1.22220300       1.74083000
H        2.97603300       1.07977600       0.17080400
H        3.54007100      -0.56635700       0.47103700
H        3.35114900       0.01624000      -1.18271500
H        0.88375800       0.15453100      -0.89255800
H        1.40844200      -1.49334800      -0.52243800
H        0.88937500       0.68488100       1.60780700
H       -1.72797000       2.52634700      -0.16264700
H       -1.45921800       1.57032700      -1.72219900
H       -3.25542600      -1.27720100      -0.65784900
H       -2.45201600       0.52543300       0.97621000
H       -1.59663700      -1.59651700      -0.18025300
H       -1.92972300      -0.84971000      -1.75069100
