13
Extracted from Q-Chem output
O       0.129418      1.412823      0.908961
C       0.747149      0.993387     -0.269229
N       1.664761     -0.026468     -0.054178
C       0.578551     -1.075659     -0.341524
C      -0.662300     -0.118886     -0.618963
C      -1.080223      0.619919      0.687212
N       0.064559      0.968030     -1.360773
H       1.936092     -0.062241      0.920719
H       0.481213     -1.762146      0.502979
H       0.837004     -1.618966     -1.247115
H      -1.470818     -0.552994     -1.201753
H      -1.932658      1.275871      0.517313
H      -1.236128     -0.012031      1.562153
