15
Extracted from Q-Chem output
C      -1.212631      0.116824      1.077937
C      -0.414654     -0.598067      0.052303
C      -0.708950     -0.464375     -1.395524
N       1.068822      1.086521     -0.045686
C       2.000569      0.287509      0.355182
O       1.738089     -0.912176      0.596025
H      -2.117313     -0.482588      1.250884
H      -1.489714      1.121371      0.769194
H      -0.673128      0.159918      2.022470
H      -0.176791     -1.611108      0.337521
H       0.146874     -0.774801     -1.992634
H      -0.999129      0.545675     -1.672864
H      -1.526989     -1.163305     -1.618776
H       1.330831      2.048017     -0.228731
H       3.034115      0.640585      0.492696
