17
Extracted from Q-Chem output
C      -2.107882     -0.188514     -0.189458
C      -0.630778     -0.443383     -0.383236
O      -0.010015      0.686355     -1.027768
C       0.165649     -0.672810      0.898372
C       1.600452     -0.335146      0.505833
C       1.486460      0.928285     -0.328523
O       1.122669      2.041347      0.254459
H      -2.575879     -1.058362      0.274704
H      -2.266198      0.673133      0.462471
H      -2.601293     -0.001272     -1.143351
H      -0.483101     -1.286218     -1.066024
H       0.018532      1.640365     -0.366287
H      -0.177783      0.011235      1.677478
H       0.051385     -1.693057      1.265261
H       2.046803     -1.141092     -0.082445
H       2.240670     -0.133066      1.364391
H       2.165286      0.995147     -1.189648
