12
Extracted from Q-Chem output
O       3.016852     -0.138620      0.683731
C       2.034730      0.410695      0.411178
C      -0.493494     -1.132582     -0.255518
C      -1.434432     -0.075759      0.235895
C      -0.215251      0.311305     -0.553395
C       0.912005      1.018865      0.116712
H       0.130662     -1.631344      0.475147
H      -0.809661     -1.764160     -1.074680
H      -2.399774      0.015559     -0.244603
H      -1.428582      0.146986      1.294785
H      -0.400723      0.621192     -1.576398
H       0.852686      2.071095      0.364967
