12
Extracted from Q-Chem output
O       2.447637     -0.629260      0.389447
C       1.457490      0.020222      0.287356
C      -0.128827     -1.037092     -0.038054
C      -1.323701     -0.138054      0.207825
C      -0.383369      0.753671     -0.466423
C       0.844038      1.212096      0.131700
H       0.172100     -1.635969      0.815068
H      -0.127628     -1.591537     -0.968142
H      -2.231513     -0.366631     -0.342255
H      -1.498055      0.064019      1.258830
H      -0.634984      1.052270     -1.489516
H       1.257172      2.208444      0.151930
