14
smiles: [C:1]1([H:7])([H:8])[C@@:2]2([H:9])[C:3][C:4]([H:12])([H:13])[O:5][C@@:6]12[H:14].[H:10][H:11]
C        1.33998400       0.08609500      -0.33815100
C        0.52759100      -0.21719400       0.95906600
C       -0.83334100       0.19765000       0.86698600
C       -1.36054000      -0.52694800      -0.29822500
O       -0.41481700      -1.48336100      -0.82146400
C        0.78391200      -1.25070000      -0.17669300
H        0.90303900       0.75590400      -1.06722700
H        2.38876100       0.24965500      -0.13287300
H        1.09749200      -0.15602200       1.87566700
H       -0.85430500       3.37997600      -0.40239600
H       -1.00070600       2.86160400       0.11162800
H       -1.69500900       0.17551300      -1.07228900
H       -2.24790900      -1.08342400       0.02357100
H        1.39850900      -2.12775800      -0.02389600
