14
Extracted from Q-Chem output
C       2.838417     -0.170043      0.044430
C       1.404922      0.051308     -0.101700
C       0.223689      0.224056     -0.217083
C      -1.220597      0.458797     -0.361439
C      -2.025799     -0.821887     -0.227692
O      -1.703808      1.362820      0.621791
H       3.091404     -1.207124     -0.181071
H       3.157192      0.041028      1.066273
H       3.405918      0.473176     -0.629575
H      -1.390342      0.880969     -1.361375
H      -1.865169     -1.260957      0.757136
H      -3.086504     -0.597775     -0.344472
H      -1.728096     -1.541901     -0.989997
H      -1.101226      2.107535      0.669110
