15
Extracted from Q-Chem output
C      -0.875734      0.264747     -1.013233
C       0.095413     -0.605387     -0.233862
C      -0.615927     -1.428357      0.847022
C       1.116483      2.656085      0.046536
O       0.961063      3.788304     -0.175312
C       1.433822      1.455832      0.380408
C       1.233158      0.151225      0.395691
H      -1.368440      0.985681     -0.356928
H      -1.649136     -0.351852     -1.474195
H      -0.371482      0.822714     -1.803271
H       0.567654     -1.316575     -0.925590
H      -1.111744     -0.770840      1.564694
H      -1.374056     -2.071570      0.397788
H       0.082062     -2.062925      1.396513
H       1.946178     -0.481602      0.927393
