15
Extracted from Q-Chem output
C      -1.930323     -0.978312      0.387562
C      -0.526762     -0.581502      0.023429
C      -0.217987      0.695542     -0.648610
N       0.043669      0.517904      0.799339
C       1.501060      0.470774      0.816144
C       1.750223      0.617831     -0.663070
N       2.380122      0.676274     -1.687207
H      -1.935770     -1.635143      1.260000
H      -2.406594     -1.505301     -0.441697
H      -2.524993     -0.095279      0.623502
H       0.139870     -1.418121     -0.190134
H       1.065903      0.718176     -1.726905
H      -1.003307      1.387199     -0.946031
H       1.914292      1.335343      1.339920
H       1.927874     -0.442977      1.237303
