12
Extracted from Q-Chem output
O      -0.340217      1.031531      0.793922
C      -0.746484      0.125233     -0.166929
C       0.423857     -0.766219     -0.523790
C       1.497844     -0.218827      0.375820
C       0.978521      0.779364      1.069907
C      -1.985455      0.128151     -0.629436
H       0.676911     -0.683973     -1.584023
H       0.198893     -1.817173     -0.324807
H       2.512189     -0.577106      0.441266
H       1.413922      1.428164      1.814354
H      -2.714251      0.840720     -0.269622
H      -2.282798     -0.589119     -1.380595
