12
Extracted from Q-Chem output
O      -0.711001     -0.202266      1.605971
C      -0.727639     -0.282599      0.298589
C       0.411868     -1.138166     -0.335902
C       1.423080     -0.065765     -0.005043
C       0.600515      0.800670      0.550274
C      -1.496224      0.541785     -0.495022
H       0.278642     -1.306451     -1.405192
H       0.545917     -2.081863      0.190667
H       2.494917     -0.012308     -0.118195
H       0.490632      1.748260      1.045231
H      -2.191838      1.228153     -0.031250
H      -1.384988      0.541878     -1.570662
