14
Extracted from Q-Chem output
C       0.765328     -1.162225      0.033869
C      -1.508314     -0.234961     -0.563649
C      -1.085792      0.681531      0.400348
O      -0.021703     -0.013289      1.522906
C       0.334213      0.976389      0.540262
C       1.229373      0.200806     -0.397195
H       0.299424     -1.841133     -0.660888
H       1.294327     -1.638164      0.847945
H      -1.104832     -0.161431     -1.565984
H      -2.479917     -0.704983     -0.474913
H      -1.743529      1.224886      1.068824
H       0.668550      1.935427      0.928399
H       1.060006      0.412084     -1.452762
H       2.285862      0.353563     -0.163954
