20
smiles: [C:1]([C:2](=[C:3]([H:13])[H:14])[H:11])([H:8])([H:9])[H:10].[H:12][H:16].[N:4]1=[C:5]([H:15])[C@:6]1([C:7]([H:18])([H:19])[H:20])[H:17]
C        2.43281800       0.76932400      -0.96377500
C        2.35131700      -0.54987000      -0.26436000
C        1.41651000      -1.46468000      -0.46904100
N       -1.19083300       0.74942800      -1.01353300
C       -1.30783900       1.49132700      -0.01890200
C       -1.76765400       0.15000000       0.26093900
C       -3.22155100      -0.23454300       0.28440600
H        1.61206200       0.89814500      -1.67075800
H        3.37432900       0.86093700      -1.51158900
H        2.40087400       1.59409400      -0.24721300
H        3.13171700      -0.75381800       0.46540300
H        1.00336100       0.68574800       1.93924100
H        1.41435300      -2.40391100       0.07047400
H        0.61751700      -1.30685800      -1.18648800
H       -1.12731700       2.52358900       0.25021100
H        0.84993700       1.19046900       2.46468000
H       -1.09679800      -0.52886700       0.78305700
H       -3.60165300      -0.25540100       1.30873800
H       -3.82222300       0.47359700      -0.28814800
H       -3.36500700      -1.22821600      -0.14603000
