16
smiles: [C:1]([O:2][C:5]([H:14])([H:15])[H:16])([H:8])([H:9])[H:10].[C:3](=[C:4]([C:6]#[N:7])[H:13])([H:11])[H:12]
C        1.62842800       0.05892700      -1.17711300
O        0.85790700       0.89031800      -0.35275600
C       -0.48202700      -0.66933400       2.15367400
C       -1.33907300      -1.46296000       1.52583600
C       -0.00454500       1.71565600      -1.08694300
C       -1.47857800      -1.46501900       0.09994000
N       -1.60152600      -1.47777900      -1.04194500
H        2.26337400       0.64390100      -1.85669500
H        0.99613300      -0.60567100      -1.78173200
H        2.26454400      -0.54764000      -0.53373000
H       -0.39936000      -0.69151100       3.23252900
H        0.15562500       0.01750000       1.61178800
H       -1.97838100      -2.15167100       2.06507400
H       -0.56271400       2.32576300      -0.37788400
H        0.55264900       2.37684800      -1.76479400
H       -0.71300300       1.12564000      -1.68438900
