16
Extracted from Q-Chem output
C       2.002855      0.382159     -0.481730
O       0.726809      0.547305      0.126193
C       0.222421     -0.582386      0.957318
C      -1.223070     -0.459850      0.902069
C      -0.796158      1.020811     -0.937962
C      -1.978363     -1.387424      0.167222
N      -2.587566     -2.087126     -0.525490
H       2.162359      1.231370     -1.145114
H       2.041731     -0.548237     -1.055881
H       2.783332      0.381108      0.280960
H       0.661891     -0.434017      1.944283
H       0.602695     -1.502044      0.506643
H      -1.738786      0.070215      1.692218
H      -1.576662      1.576879     -0.443186
H      -0.083613      1.655379     -1.455319
H      -1.140357      0.173455     -1.515394
