14
smiles: [C-:6]#[O+:7].[C:1]([C@:2]1([N:3]([H:11])[H:14])[O:4][C:5]1([H:12])[H:13])([H:8])([H:9])[H:10]
C       -1.58139200       0.30969500       0.14061400
C       -0.40322900      -0.49460100      -0.34769700
N        0.06026700      -0.24752100      -1.67632000
O       -0.45471100      -1.86589400       0.01004400
C        0.56122100      -1.06372300       0.58832400
C        1.75156100       2.15540800       0.27332000
O        1.98572700       2.37002300       1.35088400
H       -1.84910400       0.03287700       1.16001500
H       -1.35750900       1.37792900       0.11044000
H       -2.44689100       0.12514000      -0.50100000
H       -0.70673100      -0.10044900      -2.31818900
H        0.45790700      -0.87283500       1.65367000
H        1.56794000      -1.27444300       0.23872400
H        0.67003700       0.55648700      -1.71286400
