15
Extracted from Q-Chem output
C      -0.454465      1.430937     -0.458765
C       0.066834      0.091618      0.066575
C      -1.030029     -0.691353      0.793874
N       0.559639     -0.711851     -1.085417
C       1.579713     -1.506606     -1.211897
C       1.181229      0.341636      0.994261
N       2.013080      0.570038      1.749264
H      -0.826081      2.043526      0.361691
H      -1.278837      1.254716     -1.153276
H       0.334030      1.976978     -0.976050
H      -1.844814     -0.901105      0.098745
H      -0.638299     -1.636528      1.168640
H      -1.423827     -0.115627      1.631548
H      -0.061506     -0.622694     -1.882058
H       2.138493     -1.483755     -0.257463
