15
Extracted from Q-Chem output
C      -0.506825      1.368302     -0.469328
C      -0.005016     -0.022321     -0.096646
C      -0.952147     -0.796936      0.798863
N       0.375240     -0.772597     -1.299459
C       1.613263     -0.995030     -0.659325
C       1.343769      0.280750      0.692257
N       1.906869      0.744534      1.591836
H      -0.741649      1.930361      0.433743
H      -1.407397      1.256552     -1.076765
H       0.242197      1.921908     -1.035162
H      -1.930596     -0.829416      0.317673
H      -0.607162     -1.818837      0.945832
H      -1.042356     -0.312790      1.771161
H       0.511134     -0.107417     -2.053446
H       1.444503     -1.828902      0.044718
