16
smiles: [C:1]([C:2]([C:3]([H:11])([H:12])[H:13])=[N+:7]=[C-:6][H:16])([H:8])([H:9])[H:10].[C:4](=[O:5])([H:14])[H:15]
C        0.92116700       1.59491400       0.29459500
C        0.52331700       0.36997300      -0.47396700
C        1.56539400      -0.65329600      -0.81480700
C       -1.72064900      -1.19878000       1.48604500
O       -0.56227400      -1.01410600       1.71809300
C       -1.87051500      -0.04868300      -1.01331400
N       -0.67958700       0.19737300      -0.82245100
H        1.66794400       2.17375300      -0.25589800
H        1.37026400       1.31296500       1.25127700
H        0.06078700       2.23257100       0.48900600
H        2.05953300      -1.00883000       0.09382600
H        1.12278500      -1.50673300      -1.32520500
H        2.33904600      -0.22379000      -1.45742400
H       -2.49731300      -0.45762800       1.75587600
H       -2.07909200      -2.12055400       0.98885100
H       -2.23707000       0.32476100      -1.97926900
