16
Extracted from Q-Chem output
C       0.984583      1.228535      0.567129
C       0.270862      0.176578     -0.239047
C       1.109433     -0.890257     -0.890535
C      -1.059872     -0.892761      1.196371
O      -2.232712     -0.712887      0.854221
C      -1.967617      0.615903     -1.063895
N      -0.794268      0.582707     -0.919788
H       1.669714      1.822964     -0.046484
H       1.575283      0.747290      1.348789
H       0.273684      1.904297      1.043617
H       1.683694     -1.418173     -0.126816
H       0.483213     -1.616246     -1.409879
H       1.822797     -0.472336     -1.608770
H      -0.546779     -1.840564      0.961573
H      -0.622574     -0.314093      2.027287
H      -2.665702      1.052953     -1.758539
