12
Extracted from Q-Chem output
O       0.941220      1.481509      0.543209
C       1.695956      0.353484      0.247970
C       0.999620     -0.745898     -0.152808
O       1.178652     -1.909185     -0.502884
N      -0.409750     -0.228729     -0.103420
C      -1.394611     -0.974633     -0.415289
C      -0.399310      1.154823      0.330531
H       2.758736      0.465188      0.368132
H      -2.410776     -0.604605     -0.380685
H      -1.133933     -1.986088     -0.710153
H      -0.823761      1.793545     -0.447150
H      -0.964143      1.258109      1.259579
