12
Extracted from Q-Chem output
O       1.718876      1.215146      1.371738
C       1.939630      0.445613      0.485225
C       0.916843     -0.577006     -0.013649
O       1.286565     -1.667428     -0.347543
N      -0.427049     -0.198261     -0.016088
C      -1.445215     -1.003833     -0.378648
C      -0.930545      1.076761     -0.024833
H       2.935299      0.319276      0.022623
H      -2.356820     -0.937742      0.188456
H      -1.316742     -1.720271     -1.181337
H      -1.454745      1.390897     -0.911129
H      -0.828199      1.714370      0.842219
