11
Extracted from Q-Chem output
N      -2.329521     -0.392993     -0.362796
C      -1.078356     -0.422741      0.054402
O      -0.414650      0.525708     -0.623816
C       1.692828     -0.111873      0.597515
C       0.961960      0.631408     -0.412921
O       1.752823     -0.439973     -0.799104
H      -2.986244     -1.033313      0.041487
H      -2.654689      0.239998     -1.084406
H       1.144051     -0.821132      1.204185
H       2.606171      0.303801      1.012666
H       1.281434      1.609651     -0.756366
