16
smiles: [C:1]([H:8])([H:9])([H:10])[H:14].[C:2]([C:3](=[O:4])[H:13])([C:5]([C:6]#[N:7])([H:15])[H:16])([H:11])[H:12]
C        2.76843200      -0.86218000       0.64930100
C       -0.64548600       0.11831800      -0.18608600
C       -0.37971800      -0.34127500      -1.59715800
O        0.02258200      -1.43054800      -1.88876600
C       -2.05462600       0.70935200      -0.05520300
C       -2.28360300       1.28524000       1.26650800
N       -2.44633500       1.73445500       2.30884500
H        2.87905100       0.12470000       0.20244400
H        2.28495100      -0.76947000       1.62061300
H        3.75004700      -1.31705000       0.77374200
H        0.09269400       0.89094400       0.05237200
H       -0.49719000      -0.71588400       0.49863300
H       -0.57891400       0.41713800      -2.38570700
H        2.15852800      -1.48805600      -0.00037600
H       -2.81101600      -0.05893800      -0.22962300
H       -2.21679400       1.49438400      -0.79846300
