16
Extracted from Q-Chem output
C       2.225898     -0.748160      0.180043
C       0.142784     -0.056742      0.640831
C      -0.311646      0.102317     -0.752355
O      -0.089965     -0.929598     -1.506280
C      -1.892178      0.262979     -0.405514
C      -2.255876      1.421430      0.396487
N      -2.491469      2.342024      1.040656
H       2.927971     -0.156151     -0.405897
H       2.109689     -0.219130      1.134587
H       2.625482     -1.728623      0.439120
H       0.269131      0.792290      1.310133
H      -0.054634     -1.020399      1.100377
H      -0.019306      1.104060     -1.133835
H       1.379218     -0.985532     -0.555153
H      -2.270272     -0.657905      0.038657
H      -2.324468      0.352328     -1.401167
