16
Extracted from Q-Chem output
C       2.495582      0.362092      0.137439
C       1.203978     -0.293016      0.566310
O       0.210039     -0.001649     -0.394751
C      -1.024248     -0.598666     -0.123768
C      -1.922579      0.203694      0.829858
C      -2.162076     -0.222909     -0.957107
H       3.282719      0.160127      0.865727
H       2.368270      1.442336      0.055198
H       2.814560     -0.019879     -0.832993
H       1.331475     -1.381036      0.652093
H       0.891408      0.077634      1.553386
H      -0.912450     -1.651365      0.140767
H      -2.406492     -0.379280      1.605356
H      -1.444249      1.121730      1.153847
H      -2.845244      0.472066      0.161964
H      -1.875265      0.733918     -1.423440
