15
Extracted from Q-Chem output
C      -2.327318      0.178317     -0.523303
N      -0.969620     -0.115808     -0.090266
C      -0.415658     -1.412717     -0.053443
C       0.866107     -1.371491      0.400809
C       2.241657      0.782725      0.083382
C       1.019132      0.088971      0.670101
N      -0.213036      0.802056      0.292260
H      -2.449621     -0.171723     -1.547346
H      -2.486275      1.250122     -0.460408
H      -3.023086     -0.354099      0.123514
H      -1.053005     -2.220344     -0.388026
H       2.256664      1.841717      0.342237
H       2.245040      0.684616     -1.002743
H       3.137169      0.299711      0.469090
H       1.039673      0.194307      1.767764
