12
Extracted from Q-Chem output
N       1.970511      0.746857     -0.205283
C       0.717941      0.172448     -0.074126
C       0.340934     -1.134095     -0.012764
N      -1.077704     -1.143878      0.032236
C      -1.470055      0.129533      0.004144
O      -2.556591      0.804889      0.010122
N      -0.424082      0.945580     -0.056502
H       2.727344      0.138552      0.059204
H       2.041021      1.644456      0.246493
H       0.917416     -2.041597     -0.006250
H      -1.674566     -1.947568      0.064010
H      -1.492038      1.683936     -0.061924
