8
Extracted from Q-Chem output
N      -0.730875      0.661583      0.167850
C      -0.565480     -0.628110     -0.042450
N       0.737431     -0.846859     -0.216806
C       1.380557      0.422944      0.013202
N       0.441925      1.326613      0.273798
H      -1.599741      1.170452      0.199510
H      -1.368438     -1.343578     -0.125431
H       1.697511     -0.785549      0.485558
