13
smiles: [C:1](=[C:2]1[N:3]=[C:4]([H:10])[C:5]([H:12])([H:13])[O:6]1)([H:7])[H:9].[H:8][H:11]
C        2.05943100      -0.45946600       0.60709300
C        0.76520900      -0.23596700       0.43240400
N        0.08083000       0.93803400       0.80693200
C       -1.13428000       0.77026000       0.48560500
C       -1.38607500      -0.56318300      -0.14776200
O       -0.09427500      -1.13568200      -0.14326200
H        2.66222600       0.30505000       1.07079500
H        0.02244400       0.94715100      -2.77647600
H        2.50861300      -1.38931200       0.29193200
H       -1.89320000       1.52457000       0.66307900
H        0.32800000       1.23816000      -2.16301000
H       -1.76708000      -0.48160600      -1.17149100
H       -2.08086700      -1.18052900       0.43228800
