7
Extracted from Q-Chem output
O       0.713517      1.631308      0.414330
C      -0.298423      1.003555      0.201328
C      -0.371247     -0.432897      0.070280
N       0.753701     -1.096565      0.196889
N       1.740731     -1.597562      0.314799
H      -1.278387      1.503249      0.088666
H      -1.259893     -1.011088     -0.120769
