11
Extracted from Q-Chem output
N       1.957307     -0.417355     -0.815657
C       0.697170     -0.239414     -0.366465
C       0.511679      0.829561      0.605446
N      -0.774145      0.883943      0.924446
C      -1.758892      0.067046      0.423570
N      -1.506096     -0.861460     -0.425498
N      -0.237124     -1.036678     -0.842461
H       2.691695      0.134138     -0.415567
H       2.162095     -1.173268     -1.442117
H      -1.058579      1.583509      1.596948
H      -2.773223      0.223368      0.767514
