16
smiles: [C:1]([C:2][C:4]([N:5]([C:6](=[O:7])[H:16])[H:15])([H:13])[H:14])([H:8])([H:9])[H:10].[O:3]([H:11])[H:12]
C       -2.02050800      -1.18543900       0.07322200
C       -0.56361300      -1.33470300       0.14778700
O       -0.63660800       0.92177000      -1.19852600
C        0.10264100      -0.08028400       0.47317800
N        1.53386300      -0.11731600       0.30940000
C        2.31731200       0.94886600       0.56874000
O        1.90630900       2.02206600       0.95090800
H       -2.55182400      -2.07960700       0.40103800
H       -2.16791700      -1.16515300      -1.02066200
H       -2.47014700      -0.27374000       0.48942100
H       -0.57991200       0.67513000      -2.12255100
H        0.19962100       1.34267500      -0.99526300
H       -0.32339000       0.80936900      -0.01268200
H       -0.16734900       0.04325400       1.54250800
H        1.93499900      -0.99636700       0.02932900
H        3.38869500       0.74796400       0.39172800
