15
Extracted from Q-Chem output
C      -0.328292      1.171475     -0.246082
C      -0.311763     -0.335703     -0.132279
C      -1.479515     -1.131128      0.372947
N       0.564331     -0.968463     -1.092011
C       1.121601     -0.625982      0.206856
C       1.597119      0.761511      0.285121
N       2.332695      1.673258      0.573075
H       1.124179      1.945522      0.166979
H      -0.879704      1.647895      0.568441
H      -0.679740      1.543734     -1.210503
H      -2.322978     -1.026385     -0.312751
H      -1.227783     -2.189462      0.443904
H      -1.796979     -0.774046      1.353975
H       0.867747     -0.331635     -1.820291
H       1.557755     -1.405207      0.819336
