11
Extracted from Q-Chem output
N       2.641190     -1.328266     -0.253195
C       1.748373     -0.521882     -0.052409
C       0.827666      0.396085      0.061510
C      -0.532474      0.271184     -0.553894
C      -1.669433      0.485822      0.414216
O      -1.545063      0.774562      1.570431
H       1.056721      1.266912      0.662766
H      -0.678539      1.003405     -1.359736
H      -0.674748     -0.705739     -1.025449
H      -2.678991      0.373905     -0.035022
H       2.709650     -2.079961      0.427761
